<?xml version="1.0" encoding="UTF-8"?>
<!-- generated on 2019-03-17 20:46:35.655680 by $Id$ via randomTrips.py
  options: 
-->
<routes xmlns:xsi="http://www.w3.org/2001/XMLSchema-instance" xsi:noNamespaceSchemaLocation="http://sumo.dlr.de/xsd/routes_file.xsd">
    <vType id="bus_bus" vClass="bus">
    </vType>
    <trip id="bus1" depart="3.92" departLane="best" from="-223640817#1" to="-223555676#1" type="bus_bus"/>
    <trip id="bus2" depart="7.84" departLane="best" from="223641158#1" to="-223404341#0" type="bus_bus"/>
    <trip id="bus5" depart="19.60" departLane="best" from="-223391416#0" to="-223555572#0" type="bus_bus"/>
    <trip id="bus6" depart="23.53" departLane="best" from="-223555676#0" to="223404341#0" type="bus_bus"/>
    <trip id="bus7" depart="27.45" departLane="best" from="223640819#0" to="-223391207#3" type="bus_bus"/>
    <trip id="bus8" depart="31.37" departLane="best" from="640406765#1" to="-223640825#2" type="bus_bus"/>
    <trip id="bus9" depart="35.29" departLane="best" from="223640826#1" to="223404328#2" type="bus_bus"/>
    <trip id="bus10" depart="39.21" departLane="best" from="-223404328#4" to="-223640805#3" type="bus_bus"/>
    <trip id="bus11" depart="43.13" departLane="best" from="-223404452#2" to="-223640817#2" type="bus_bus"/>
    <trip id="bus12" depart="47.05" departLane="best" from="223415715#6" to="-223641156#2" type="bus_bus"/>
    <trip id="bus13" depart="50.97" departLane="best" from="-223641158#1" to="-223555674#0" type="bus_bus"/>
    <trip id="bus14" depart="54.89" departLane="best" from="-223640816#0" to="523699569#11" type="bus_bus"/>
    <trip id="bus15" depart="58.81" departLane="best" from="-223506806#0" to="223555675#2" type="bus_bus"/>
    <trip id="bus17" depart="66.66" departLane="best" from="223641170" to="-641301568#0" type="bus_bus"/>
    <trip id="bus18" depart="70.58" departLane="best" from="223403444#3" to="-223640815#1" type="bus_bus"/>
    <trip id="bus19" depart="74.50" departLane="best" from="223404328#0" to="223641160#7" type="bus_bus"/>
    <trip id="bus21" depart="82.34" departLane="best" from="223640816#1" to="-640406765#1" type="bus_bus"/>
    <trip id="bus22" depart="86.26" departLane="best" from="641301554#0" to="223640831#2" type="bus_bus"/>
    <trip id="bus23" depart="90.18" departLane="best" from="-223640816#0" to="223415724#5" type="bus_bus"/>
    <trip id="bus24" depart="94.10" departLane="best" from="-641301565" to="523699569#9" type="bus_bus"/>
    <trip id="bus25" depart="98.02" departLane="best" from="223391412#0" to="-223531010#1" type="bus_bus"/>
    <trip id="bus26" depart="101.95" departLane="best" from="-223640820#2" to="223415724#4" type="bus_bus"/>
    <trip id="bus27" depart="105.87" departLane="best" from="-223391207#0" to="-223640823#1" type="bus_bus"/>
    <trip id="bus28" depart="109.79" departLane="best" from="-223391412#2" to="523699569#1" type="bus_bus"/>
    <trip id="bus29" depart="113.71" departLane="best" from="-223404325#3" to="223640812#3" type="bus_bus"/>
    <trip id="bus30" depart="117.63" departLane="best" from="223640812#0" to="-223415724#10" type="bus_bus"/>
    <trip id="bus31" depart="121.55" departLane="best" from="-223640815#2" to="223641156#0" type="bus_bus"/>
    <trip id="bus32" depart="125.47" departLane="best" from="223403162#0" to="223555675#3" type="bus_bus"/>
    <trip id="bus34" depart="133.31" departLane="best" from="-223415715#5" to="-223556865" type="bus_bus"/>
    <trip id="bus35" depart="137.23" departLane="best" from="-223640826#0" to="223404331" type="bus_bus"/>
    <trip id="bus36" depart="141.16" departLane="best" from="-223640805#2" to="-223555676#0" type="bus_bus"/>
    <trip id="bus37" depart="145.08" departLane="best" from="223640826#0" to="-223404328#0" type="bus_bus"/>
    <trip id="bus38" depart="149.00" departLane="best" from="-223640811#0" to="223503266#1" type="bus_bus"/>
    <trip id="bus39" depart="152.92" departLane="best" from="523699569#0" to="223404325#3" type="bus_bus"/>
    <trip id="bus40" depart="156.84" departLane="best" from="223391207#5" to="223640817#0" type="bus_bus"/>
    <trip id="bus41" depart="160.76" departLane="best" from="-641301529" to="223391207#2" type="bus_bus"/>
    <trip id="bus42" depart="164.68" departLane="best" from="223555572#4" to="223503267#0" type="bus_bus"/>
    <trip id="bus43" depart="168.60" departLane="best" from="-484563087#2" to="-223640826#1" type="bus_bus"/>
    <trip id="bus44" depart="172.52" departLane="best" from="-640406765#1" to="-223640817#3" type="bus_bus"/>
    <trip id="bus45" depart="176.44" departLane="best" from="-223640812#3" to="484563086#4" type="bus_bus"/>
    <trip id="bus46" depart="180.37" departLane="best" from="641301550" to="484563086#4" type="bus_bus"/>
    <trip id="bus47" depart="184.29" departLane="best" from="223391216#0" to="-223555675#1" type="bus_bus"/>
    <trip id="bus48" depart="188.21" departLane="best" from="-484563087#1" to="-223403444#8" type="bus_bus"/>
    <trip id="bus49" depart="192.13" departLane="best" from="223403162#0" to="223640806#0" type="bus_bus"/>
    <trip id="bus50" depart="196.05" departLane="best" from="-223404328#4" to="-223555563#0" type="bus_bus"/>
    <trip id="bus51" depart="199.97" departLane="best" from="-223640806#0" to="-223415715#4" type="bus_bus"/>
    <trip id="bus52" depart="203.89" departLane="best" from="-223641158#1" to="-223503265#2" type="bus_bus"/>
    <trip id="bus53" depart="207.81" departLane="best" from="223503263#1" to="523699569#11" type="bus_bus"/>
    <trip id="bus54" depart="211.73" departLane="best" from="-223640817#0" to="223404452#2" type="bus_bus"/>
    <trip id="bus55" depart="215.65" departLane="best" from="223415715#5" to="-223640815#1" type="bus_bus"/>
    <trip id="bus56" depart="219.58" departLane="best" from="223640823#1" to="-223404341#2" type="bus_bus"/>
    <trip id="bus57" depart="223.50" departLane="best" from="-223391207#1" to="223640814#2" type="bus_bus"/>
    <trip id="bus58" depart="227.42" departLane="best" from="223415724#0" to="-223640815#0" type="bus_bus"/>
    <trip id="bus60" depart="235.26" departLane="best" from="-223404328#2" to="223641160#0" type="bus_bus"/>
    <trip id="bus61" depart="239.18" departLane="best" from="223641160#2" to="-223555674#1" type="bus_bus"/>
    <trip id="bus62" depart="243.10" departLane="best" from="-223640812#3" to="-223404452#2" type="bus_bus"/>
    <trip id="bus63" depart="247.02" departLane="best" from="-484563087#2" to="223415715#3" type="bus_bus"/>
    <trip id="bus64" depart="250.94" departLane="best" from="-223391414#2" to="223556865" type="bus_bus"/>
    <trip id="bus65" depart="254.86" departLane="best" from="223640815#2" to="-223415710" type="bus_bus"/>
    <trip id="bus66" depart="258.79" departLane="best" from="-223555676#1" to="223640820#5" type="bus_bus"/>
    <trip id="bus67" depart="262.71" departLane="best" from="-641301568#1" to="-223640820#5" type="bus_bus"/>
    <trip id="bus68" depart="266.63" departLane="best" from="223640817#0" to="-223640805#0" type="bus_bus"/>
    <trip id="bus69" depart="270.55" departLane="best" from="-223391414#1" to="-223555563#3" type="bus_bus"/>
    <trip id="bus70" depart="274.47" departLane="best" from="641301537" to="-223640817#3" type="bus_bus"/>
    <trip id="bus73" depart="286.23" departLane="best" from="-223641160#7" to="223404328#1" type="bus_bus"/>
    <trip id="bus74" depart="290.15" departLane="best" from="-223391207#0" to="484563086#4" type="bus_bus"/>
    <trip id="bus75" depart="294.07" departLane="best" from="223403162#0" to="223555572#4" type="bus_bus"/>
    <trip id="bus76" depart="298.00" departLane="best" from="223555676#0" to="223503266#2" type="bus_bus"/>
    <trip id="bus77" depart="301.92" departLane="best" from="-223641156#2" to="-223404325#3" type="bus_bus"/>
    <trip id="bus78" depart="305.84" departLane="best" from="223503263#1" to="-223640824#1" type="bus_bus"/>
    <trip id="bus79" depart="309.76" departLane="best" from="-223640821#1" to="-553237960#0" type="bus_bus"/>
    <trip id="bus80" depart="313.68" departLane="best" from="-484563087#2" to="-223640820#0" type="bus_bus"/>
    <trip id="bus81" depart="317.60" departLane="best" from="-223640820#3" to="223403444#1" type="bus_bus"/>
    <trip id="bus82" depart="321.52" departLane="best" from="-223391207#0" to="-223640819#0" type="bus_bus"/>
    <trip id="bus83" depart="325.44" departLane="best" from="223391207#5" to="223641160#8" type="bus_bus"/>
    <trip id="bus84" depart="329.36" departLane="best" from="223640817#0" to="-223506806#0" type="bus_bus"/>
    <trip id="bus86" depart="337.21" departLane="best" from="223415715#4" to="-223640825#2" type="bus_bus"/>
    <trip id="bus87" depart="341.13" departLane="best" from="223503265#2" to="-223556865" type="bus_bus"/>
    <trip id="bus89" depart="348.97" departLane="best" from="-223640812#1" to="223391207#6" type="bus_bus"/>
    <trip id="bus90" depart="352.89" departLane="best" from="223640824#0" to="-223404328#1" type="bus_bus"/>
    <trip id="bus91" depart="356.81" departLane="best" from="223391416#2" to="-223403444#3" type="bus_bus"/>
    <trip id="bus92" depart="360.73" departLane="best" from="-641301566#0" to="223640819#1" type="bus_bus"/>
    <trip id="bus93" depart="364.65" departLane="best" from="223641158#1" to="223415713" type="bus_bus"/>
    <trip id="bus95" depart="372.49" departLane="best" from="223391207#6" to="-223640814#2" type="bus_bus"/>
    <trip id="bus96" depart="376.42" departLane="best" from="-223640812#2" to="223415724#4" type="bus_bus"/>
    <trip id="bus97" depart="380.34" departLane="best" from="223415715#1" to="-223640817#1" type="bus_bus"/>
    <trip id="bus98" depart="384.26" departLane="best" from="-223404328#3" to="-223640817#7" type="bus_bus"/>
    <trip id="bus99" depart="388.18" departLane="best" from="223403162#0" to="-223415724#8" type="bus_bus"/>
    <trip id="bus100" depart="392.10" departLane="best" from="223531016#1" to="-223404325#0" type="bus_bus"/>
    <trip id="bus101" depart="396.02" departLane="best" from="-484563087#2" to="223403162#4" type="bus_bus"/>
    <trip id="bus102" depart="399.94" departLane="best" from="-640406765#0" to="223641170" type="bus_bus"/>
    <trip id="bus103" depart="403.86" departLane="best" from="223404328#0" to="223531016#0" type="bus_bus"/>
    <trip id="bus104" depart="407.78" departLane="best" from="223640825#1" to="223640813#1" type="bus_bus"/>
    <trip id="bus105" depart="411.70" departLane="best" from="-223641160#4" to="-223391207#2" type="bus_bus"/>
    <trip id="bus106" depart="415.63" departLane="best" from="223403162#0" to="223404452#2" type="bus_bus"/>
    <trip id="bus108" depart="423.47" departLane="best" from="-223640825#2" to="223506806#0" type="bus_bus"/>
    <trip id="bus109" depart="427.39" departLane="best" from="-484563087#2" to="-223503266#2" type="bus_bus"/>
    <trip id="bus111" depart="435.23" departLane="best" from="-270435934" to="223403444#9" type="bus_bus"/>
    <trip id="bus112" depart="439.15" departLane="best" from="-223391416#0" to="223415724#8" type="bus_bus"/>
    <trip id="bus113" depart="443.07" departLane="best" from="-223555674#1" to="-223640824#0" type="bus_bus"/>
    <trip id="bus114" depart="446.99" departLane="best" from="-223640813#1" to="-223404328#5" type="bus_bus"/>
    <trip id="bus115" depart="450.91" departLane="best" from="641301568#1" to="-223641148#0" type="bus_bus"/>
    <trip id="bus116" depart="454.84" departLane="best" from="223415724#5" to="223640816#1" type="bus_bus"/>
    <trip id="bus117" depart="458.76" departLane="best" from="223415724#8" to="223640812#0" type="bus_bus"/>
    <trip id="bus118" depart="462.68" departLane="best" from="523699569#7" to="-223555572#0" type="bus_bus"/>
    <trip id="bus119" depart="466.60" departLane="best" from="-223391414#0" to="-223503263#2" type="bus_bus"/>
    <trip id="bus120" depart="470.52" departLane="best" from="-223503269" to="223415705" type="bus_bus"/>
    <trip id="bus125" depart="490.12" departLane="best" from="-223404452#2" to="223640815#0" type="bus_bus"/>
    <trip id="bus126" depart="494.05" departLane="best" from="223640824#0" to="223404452#0" type="bus_bus"/>
    <trip id="bus128" depart="501.89" departLane="best" from="223640824#0" to="223640821#1" type="bus_bus"/>
    <trip id="bus130" depart="509.73" departLane="best" from="223415715#6" to="223640821#5" type="bus_bus"/>
    <trip id="bus132" depart="517.57" departLane="best" from="223403162#0" to="223391216#5" type="bus_bus"/>
    <trip id="bus133" depart="521.49" departLane="best" from="-223404331" to="223555674#0" type="bus_bus"/>
    <trip id="bus134" depart="525.41" departLane="best" from="-223404341#4" to="-223555676#0" type="bus_bus"/>
    <trip id="bus135" depart="529.33" departLane="best" from="223506806#2" to="-223640820#5" type="bus_bus"/>
    <trip id="bus136" depart="533.26" departLane="best" from="223555676#1" to="-223640825#0" type="bus_bus"/>
    <trip id="bus137" depart="537.18" departLane="best" from="-223640813#0" to="-223415715#4" type="bus_bus"/>
    <trip id="bus138" depart="541.10" departLane="best" from="223403161#1" to="223640813#0" type="bus_bus"/>
    <trip id="bus139" depart="545.02" departLane="best" from="223391216#0" to="223555675#0" type="bus_bus"/>
    <trip id="bus141" depart="552.86" departLane="best" from="223403161#0" to="-223640817#1" type="bus_bus"/>
    <trip id="bus142" depart="556.78" departLane="best" from="223531010#1" to="-223415724#1" type="bus_bus"/>
    <trip id="bus143" depart="560.70" departLane="best" from="223640831#1" to="223391216#8" type="bus_bus"/>
    <trip id="bus144" depart="564.62" departLane="best" from="223641148#0" to="223404328#0" type="bus_bus"/>
    <trip id="bus145" depart="568.54" departLane="best" from="223403444#4" to="-223640820#4" type="bus_bus"/>
    <trip id="bus146" depart="572.47" departLane="best" from="223640812#0" to="223415704" type="bus_bus"/>
    <trip id="bus147" depart="576.39" departLane="best" from="223640816#1" to="-223556865" type="bus_bus"/>
    <trip id="bus148" depart="580.31" departLane="best" from="223391573#0" to="-641301562" type="bus_bus"/>
    <trip id="bus149" depart="584.23" departLane="best" from="-641301555#1" to="223640831#2" type="bus_bus"/>
    <trip id="bus150" depart="588.15" departLane="best" from="641301565" to="-223640820#5" type="bus_bus"/>
    <trip id="bus151" depart="592.07" departLane="best" from="223404328#5" to="-223640819#2" type="bus_bus"/>
    <trip id="bus152" depart="595.99" departLane="best" from="-223640805#2" to="223555563#4" type="bus_bus"/>
    <trip id="bus153" depart="599.91" departLane="best" from="223503269" to="484563086#4" type="bus_bus"/>
    <trip id="bus154" depart="603.83" departLane="best" from="223640815#2" to="223415715#6" type="bus_bus"/>
    <trip id="bus155" depart="607.75" departLane="best" from="223503261" to="523699569#11" type="bus_bus"/>
    <trip id="bus157" depart="615.60" departLane="best" from="223640820#5" to="-223404328#0" type="bus_bus"/>
    <trip id="bus158" depart="619.52" departLane="best" from="223640805#0" to="223404325#2" type="bus_bus"/>
    <trip id="bus159" depart="623.44" departLane="best" from="-223640819#1" to="-223415724#0" type="bus_bus"/>
    <trip id="bus160" depart="627.36" departLane="best" from="223506806#0" to="223555563#1" type="bus_bus"/>
    <trip id="bus162" depart="635.20" departLane="best" from="223640821#3" to="223404328#1" type="bus_bus"/>
    <trip id="bus163" depart="639.12" departLane="best" from="-223403161#0" to="223640812#1" type="bus_bus"/>
    <trip id="bus164" depart="643.04" departLane="best" from="223640819#2" to="223403444#2" type="bus_bus"/>
    <trip id="bus165" depart="646.96" departLane="best" from="-641301565" to="-223640821#4" type="bus_bus"/>
    <trip id="bus167" depart="654.81" departLane="best" from="223403162#0" to="-553237960#1" type="bus_bus"/>
    <trip id="bus168" depart="658.73" departLane="best" from="223640806#0" to="223415715#6" type="bus_bus"/>
    <trip id="bus169" depart="662.65" departLane="best" from="223640806#1" to="-223555572#2" type="bus_bus"/>
    <trip id="bus170" depart="666.57" departLane="best" from="223404452#0" to="-223640811#0" type="bus_bus"/>
    <trip id="bus171" depart="670.49" departLane="best" from="223640821#1" to="223391216#8" type="bus_bus"/>
    <trip id="bus173" depart="678.33" departLane="best" from="641301558" to="-223640812#0" type="bus_bus"/>
    <trip id="bus175" depart="686.17" departLane="best" from="-553237960#1-AddedOnRampEdge" to="523699569#11" type="bus_bus"/>
    <trip id="bus176" depart="690.10" departLane="best" from="223391216#2" to="-223503263#0" type="bus_bus"/>
    <trip id="bus177" depart="694.02" departLane="best" from="223403162#0" to="-223640831#1" type="bus_bus"/>
    <trip id="bus178" depart="697.94" departLane="best" from="223403444#8" to="-223640805#3" type="bus_bus"/>
    <trip id="bus179" depart="701.86" departLane="best" from="223640813#1" to="-223403444#0" type="bus_bus"/>
    <trip id="bus180" depart="705.78" departLane="best" from="641301558" to="223391216#8" type="bus_bus"/>
    <trip id="bus181" depart="709.70" departLane="best" from="223404328#3" to="223641148#4" type="bus_bus"/>
    <trip id="bus182" depart="713.62" departLane="best" from="223391573#1" to="-641301566#0" type="bus_bus"/>
    <trip id="bus183" depart="717.54" departLane="best" from="223555572#1" to="-553237960#0" type="bus_bus"/>
    <trip id="bus184" depart="721.46" departLane="best" from="223415724#5" to="223640826#1" type="bus_bus"/>
    <trip id="bus187" depart="733.23" departLane="best" from="223640831#2" to="223415715#3" type="bus_bus"/>
    <trip id="bus188" depart="737.15" departLane="best" from="-223391207#4" to="223640819#3" type="bus_bus"/>
    <trip id="bus189" depart="741.07" departLane="best" from="223641160#3" to="223506806#0" type="bus_bus"/>
    <trip id="bus190" depart="744.99" departLane="best" from="-223640831#1" to="223404331" type="bus_bus"/>
    <trip id="bus191" depart="748.91" departLane="best" from="641301566#0" to="-223640820#0" type="bus_bus"/>
    <trip id="bus192" depart="752.83" departLane="best" from="-223640817#1" to="223404325#0" type="bus_bus"/>
    <trip id="bus193" depart="756.75" departLane="best" from="223503269" to="223640805#3" type="bus_bus"/>
    <trip id="bus194" depart="760.67" departLane="best" from="223404341#5" to="-223641148#1" type="bus_bus"/>
    <trip id="bus195" depart="764.59" departLane="best" from="223503266#1" to="223555674#0" type="bus_bus"/>
    <trip id="bus196" depart="768.52" departLane="best" from="223415724#2" to="-223640821#1" type="bus_bus"/>
    <trip id="bus197" depart="772.44" departLane="best" from="223555674#1" to="-223404341#1" type="bus_bus"/>
    <trip id="bus198" depart="776.36" departLane="best" from="-223531010#0" to="-223415724#2" type="bus_bus"/>
    <trip id="bus199" depart="780.28" departLane="best" from="223403162#0" to="641301554#0" type="bus_bus"/>
    <trip id="bus200" depart="784.20" departLane="best" from="-223640826#1" to="-223415715#2" type="bus_bus"/>
    <trip id="bus201" depart="788.12" departLane="best" from="641301537" to="223640831#2" type="bus_bus"/>
    <trip id="bus202" depart="792.04" departLane="best" from="641301537" to="223640819#3" type="bus_bus"/>
    <trip id="bus203" depart="795.96" departLane="best" from="223640820#2" to="523699569#11" type="bus_bus"/>
    <trip id="bus204" depart="799.88" departLane="best" from="-223415710" to="-223640805#3" type="bus_bus"/>
    <trip id="bus205" depart="803.80" departLane="best" from="-223640820#3" to="-553237960#0" type="bus_bus"/>
    <trip id="bus206" depart="807.72" departLane="best" from="-223640820#4" to="223391216#8" type="bus_bus"/>
    <trip id="bus207" depart="811.65" departLane="best" from="-223404452#0" to="223641160#2" type="bus_bus"/>
    <trip id="bus208" depart="815.57" departLane="best" from="223503265#1" to="223640805#2" type="bus_bus"/>
    <trip id="bus209" depart="819.49" departLane="best" from="223555676#0" to="-223503265#0" type="bus_bus"/>
    <trip id="bus210" depart="823.41" departLane="best" from="223391216#2" to="-553237960#0" type="bus_bus"/>
    <trip id="bus212" depart="831.25" departLane="best" from="-223641158#1" to="-641301555#1" type="bus_bus"/>
    <trip id="bus213" depart="835.17" departLane="best" from="223403162#0" to="641301557" type="bus_bus"/>
    <trip id="bus214" depart="839.09" departLane="best" from="223503263#0" to="223415724#8" type="bus_bus"/>
    <trip id="bus216" depart="846.93" departLane="best" from="-223404325#3" to="223640813#1" type="bus_bus"/>
    <trip id="bus217" depart="850.86" departLane="best" from="-223503263#0" to="223641160#8" type="bus_bus"/>
    <trip id="bus218" depart="854.78" departLane="best" from="-223391207#1" to="223640831#1" type="bus_bus"/>
    <trip id="bus219" depart="858.70" departLane="best" from="-223640813#0" to="-223506806#2" type="bus_bus"/>
    <trip id="bus222" depart="870.46" departLane="best" from="223391216#0" to="-553237960#0" type="bus_bus"/>
    <trip id="bus223" depart="874.38" departLane="best" from="223503269" to="223391216#8" type="bus_bus"/>
    <trip id="bus224" depart="878.30" departLane="best" from="223641160#8" to="-223404328#1" type="bus_bus"/>
    <trip id="bus225" depart="882.22" departLane="best" from="-223404325#1" to="-223640817#1" type="bus_bus"/>
    <trip id="bus226" depart="886.14" departLane="best" from="223415724#5" to="223640814#1" type="bus_bus"/>
    <trip id="bus227" depart="890.07" departLane="best" from="223555572#0" to="-223555675#1" type="bus_bus"/>
    <trip id="bus228" depart="893.99" departLane="best" from="-641301562" to="-223640805#1" type="bus_bus"/>
    <trip id="bus229" depart="897.91" departLane="best" from="-223640826#1" to="-641301563#0" type="bus_bus"/>
    <trip id="bus230" depart="901.83" departLane="best" from="-223641160#1" to="-223503263#2" type="bus_bus"/>
    <trip id="bus231" depart="905.75" departLane="best" from="-223404341#5" to="223640805#0" type="bus_bus"/>
    <trip id="bus232" depart="909.67" departLane="best" from="223640819#1" to="223403444#5" type="bus_bus"/>
    <trip id="bus233" depart="913.59" departLane="best" from="-223640824#1" to="-223415715#5" type="bus_bus"/>
    <trip id="bus234" depart="917.51" departLane="best" from="-223641148#2" to="223503266#0" type="bus_bus"/>
    <trip id="bus235" depart="921.43" departLane="best" from="223555572#0" to="641301550" type="bus_bus"/>
    <trip id="bus236" depart="925.35" departLane="best" from="223404341#0" to="-223641148#1" type="bus_bus"/>
    <trip id="bus237" depart="929.28" departLane="best" from="223415924#0" to="-223556865" type="bus_bus"/>
    <trip id="bus238" depart="933.20" departLane="best" from="-223415710" to="223640825#1" type="bus_bus"/>
    <trip id="bus239" depart="937.12" departLane="best" from="223403444#9" to="223640820#0" type="bus_bus"/>
    <trip id="bus240" depart="941.04" departLane="best" from="223640820#0" to="223415715#0" type="bus_bus"/>
    <trip id="bus242" depart="948.88" departLane="best" from="523699569#0" to="223640821#5" type="bus_bus"/>
    <trip id="bus243" depart="952.80" departLane="best" from="-223640826#1" to="-223391207#3" type="bus_bus"/>
    <trip id="bus244" depart="956.72" departLane="best" from="223640831#2" to="223404325#0" type="bus_bus"/>
    <trip id="bus245" depart="960.64" departLane="best" from="-484563087#1" to="-223415924#0" type="bus_bus"/>
    <trip id="bus247" depart="968.49" departLane="best" from="-640406765#0" to="-223640829" type="bus_bus"/>
    <trip id="bus248" depart="972.41" departLane="best" from="223640814#0" to="223404325#1" type="bus_bus"/>
    <trip id="bus249" depart="976.33" departLane="best" from="223503263#0" to="223391216#6" type="bus_bus"/>
    <trip id="bus250" depart="980.25" departLane="best" from="-641301555#1" to="-223640817#0" type="bus_bus"/>
    <trip id="bus251" depart="984.17" departLane="best" from="223640805#3" to="-223415715#1" type="bus_bus"/>
    <trip id="bus253" depart="992.01" departLane="best" from="-270435960" to="223404452#0" type="bus_bus"/>
    <trip id="bus254" depart="995.93" departLane="best" from="-223391207#3" to="-223640820#3" type="bus_bus"/>
    <trip id="bus255" depart="999.85" departLane="best" from="-223391207#3" to="223640806#0" type="bus_bus"/>
    <trip id="bus256" depart="1003.77" departLane="best" from="223640821#2" to="223640819#3" type="bus_bus"/>
    <trip id="bus257" depart="1007.70" departLane="best" from="-223404328#0" to="223641148#0" type="bus_bus"/>
    <trip id="bus259" depart="1015.54" departLane="best" from="223555563#0" to="-553237960#4" type="bus_bus"/>
    <trip id="bus261" depart="1023.38" departLane="best" from="223415705" to="223640821#6" type="bus_bus"/>
    <trip id="bus262" depart="1027.30" departLane="best" from="484563086#0" to="-223404341#0" type="bus_bus"/>
    <trip id="bus265" depart="1039.06" departLane="best" from="223404341#1" to="223640812#3" type="bus_bus"/>
    <trip id="bus266" depart="1042.98" departLane="best" from="223640813#0" to="223391216#8" type="bus_bus"/>
    <trip id="bus267" depart="1046.91" departLane="best" from="-641301560#0" to="484563086#4" type="bus_bus"/>
    <trip id="bus268" depart="1050.83" departLane="best" from="223415715#0" to="223641148#1" type="bus_bus"/>
    <trip id="bus270" depart="1058.67" departLane="best" from="-223403444#7" to="223640821#6" type="bus_bus"/>
    <trip id="bus271" depart="1062.59" departLane="best" from="-223404328#3" to="223641148#1" type="bus_bus"/>
    <trip id="bus272" depart="1066.51" departLane="best" from="223640825#1" to="223415715#1" type="bus_bus"/>
    <trip id="bus273" depart="1070.43" departLane="best" from="223391414#0" to="223391207#0" type="bus_bus"/>
    <trip id="bus274" depart="1074.35" departLane="best" from="223641160#1" to="-641301562" type="bus_bus"/>
    <trip id="bus275" depart="1078.27" departLane="best" from="223640819#0" to="223503263#0" type="bus_bus"/>
    <trip id="bus276" depart="1082.19" departLane="best" from="-223415704" to="223641160#7" type="bus_bus"/>
    <trip id="bus277" depart="1086.12" departLane="best" from="223391412#2" to="-223506806#1" type="bus_bus"/>
    <trip id="bus279" depart="1093.96" departLane="best" from="-223503265#2" to="-223641160#0" type="bus_bus"/>
    <trip id="bus280" depart="1097.88" departLane="best" from="-223640817#5" to="-553237960#0" type="bus_bus"/>
    <trip id="bus281" depart="1101.80" departLane="best" from="-223640826#0" to="223404341#5" type="bus_bus"/>
    <trip id="bus282" depart="1105.72" departLane="best" from="223503266#1" to="-223640817#5" type="bus_bus"/>
    <trip id="bus283" depart="1109.64" departLane="best" from="-223640825#1" to="223404328#5" type="bus_bus"/>
    <trip id="bus284" depart="1113.56" departLane="best" from="641301537" to="223555563#0" type="bus_bus"/>
    <trip id="bus285" depart="1117.48" departLane="best" from="223640819#2" to="223503266#2" type="bus_bus"/>
    <trip id="bus286" depart="1121.40" departLane="best" from="-223640805#0" to="-223415724#8" type="bus_bus"/>
    <trip id="bus287" depart="1125.33" departLane="best" from="-223404328#3" to="223640825#0" type="bus_bus"/>
    <trip id="bus288" depart="1129.25" departLane="best" from="-223404452#2" to="223640814#2" type="bus_bus"/>
    <trip id="bus289" depart="1133.17" departLane="best" from="223640812#1" to="-223415724#2" type="bus_bus"/>
    <trip id="bus290" depart="1137.09" departLane="best" from="-223641160#2" to="-223503266#1" type="bus_bus"/>
    <trip id="bus291" depart="1141.01" departLane="best" from="223640819#0" to="-223503267#0" type="bus_bus"/>
    <trip id="bus292" depart="1144.93" departLane="best" from="-641301554#0" to="-553237960#0" type="bus_bus"/>
    <trip id="bus293" depart="1148.85" departLane="best" from="223503266#0" to="-223640806#1" type="bus_bus"/>
    <trip id="bus294" depart="1152.77" departLane="best" from="223640805#0" to="-641301560#0" type="bus_bus"/>
    <trip id="bus295" depart="1156.69" departLane="best" from="223403161#0" to="-223640821#1" type="bus_bus"/>
    <trip id="bus296" depart="1160.61" departLane="best" from="223640819#0" to="223391207#3" type="bus_bus"/>
    <trip id="bus297" depart="1164.54" departLane="best" from="-641301568#1" to="-223640817#4" type="bus_bus"/>
    <trip id="bus298" depart="1168.46" departLane="best" from="641301537" to="223640820#5" type="bus_bus"/>
    <trip id="bus299" depart="1172.38" departLane="best" from="223640817#3" to="-223415724#8" type="bus_bus"/>
    <trip id="bus300" depart="1176.30" departLane="best" from="-223640813#0" to="223415724#8" type="bus_bus"/>
    <trip id="bus301" depart="1180.22" departLane="best" from="223641148#1" to="223403444#5" type="bus_bus"/>
    <trip id="bus302" depart="1184.14" departLane="best" from="-223404452#2" to="223640825#1" type="bus_bus"/>
    <trip id="bus303" depart="1188.06" departLane="best" from="223641160#6" to="-223503263#0" type="bus_bus"/>
    <trip id="bus306" depart="1199.82" departLane="best" from="-223640806#0" to="641301566#1" type="bus_bus"/>
    <trip id="bus308" depart="1207.67" departLane="best" from="523699569#0" to="223640824#0" type="bus_bus"/>
    <trip id="bus309" depart="1211.59" departLane="best" from="223415724#5" to="223640817#3" type="bus_bus"/>
    <trip id="bus310" depart="1215.51" departLane="best" from="-223415724#8" to="-223640819#0" type="bus_bus"/>
    <trip id="bus311" depart="1219.43" departLane="best" from="-223404328#4" to="-223640814#0" type="bus_bus"/>
    <trip id="bus312" depart="1223.35" departLane="best" from="-223415715#0" to="-223640819#0" type="bus_bus"/>