<?xml version="1.0" encoding="UTF-8"?>
<!-- generated on 2019-03-17 20:46:27.091191 by $Id$ via randomTrips.py
  options: 
-->
<routes xmlns:xsi="http://www.w3.org/2001/XMLSchema-instance" xsi:noNamespaceSchemaLocation="http://sumo.dlr.de/xsd/routes_file.xsd">
    <vType id="veh_passenger" vClass="passenger">
    </vType>
    <trip id="veh1" depart="1.18" departLane="best" from="-223640817#4" to="-223640805#1" type="veh_passenger"/>
    <trip id="veh2" depart="2.35" departLane="best" from="223555675#1" to="223506806#1" type="veh_passenger"/>
    <trip id="veh3" depart="3.53" departLane="best" from="223641160#1" to="-223404341#1" type="veh_passenger"/>
    <trip id="veh6" depart="7.06" departLane="best" from="-223391416#0" to="-223555572#3" type="veh_passenger"/>
    <trip id="veh7" depart="8.23" departLane="best" from="223415724#4" to="223403444#0" type="veh_passenger"/>
    <trip id="veh9" depart="10.59" departLane="best" from="223640819#1" to="-223391207#3" type="veh_passenger"/>
    <trip id="veh10" depart="11.76" departLane="best" from="223640817#7" to="223555563#2" type="veh_passenger"/>
    <trip id="veh11" depart="12.94" departLane="best" from="-223640831#2" to="-223503265#2" type="veh_passenger"/>
    <trip id="veh12" depart="14.12" departLane="best" from="640406765#1" to="-223640831#0" type="veh_passenger"/>
    <trip id="veh13" depart="15.29" departLane="best" from="223640824#0" to="223415704" type="veh_passenger"/>
    <trip id="veh14" depart="16.47" departLane="best" from="223640819#0" to="223555676#1" type="veh_passenger"/>
    <trip id="veh15" depart="17.64" departLane="best" from="223403162#0" to="641301554#1" type="veh_passenger"/>
    <trip id="veh16" depart="18.82" departLane="best" from="-223641160#8" to="223403444#4" type="veh_passenger"/>
    <trip id="veh17" depart="20.00" departLane="best" from="223640821#1" to="223415715#4" type="veh_passenger"/>
    <trip id="veh18" depart="21.17" departLane="best" from="223640829" to="223404328#3" type="veh_passenger"/>
    <trip id="veh19" depart="22.35" departLane="best" from="-223640805#3" to="-223640820#1" type="veh_passenger"/>
    <trip id="veh20" depart="23.53" departLane="best" from="-223404328#5" to="-223640811#0" type="veh_passenger"/>
    <trip id="veh21" depart="24.70" departLane="best" from="-223415704" to="-223640817#7" type="veh_passenger"/>
    <trip id="veh22" depart="25.88" departLane="best" from="223415715#4" to="-223641160#1" type="veh_passenger"/>
    <trip id="veh23" depart="27.05" departLane="best" from="-223641160#4" to="-223555675#1" type="veh_passenger"/>
    <trip id="veh24" depart="28.23" departLane="best" from="-223640817#0" to="523699569#11" type="veh_passenger"/>
    <trip id="veh25" depart="29.41" departLane="best" from="-223506806#2" to="223555676#1" type="veh_passenger"/>
    <trip id="veh26" depart="30.58" departLane="best" from="-223503269" to="-223641160#8" type="veh_passenger"/>
    <trip id="veh28" depart="32.94" departLane="best" from="-223640823#1" to="-223640817#1" type="veh_passenger"/>
    <trip id="veh29" depart="34.11" departLane="best" from="-223555675#2" to="523699569#11" type="veh_passenger"/>
    <trip id="veh30" depart="35.29" departLane="best" from="223415724#8" to="-553237960#0" type="veh_passenger"/>
    <trip id="veh31" depart="36.47" departLane="best" from="270435960" to="223391207#1" type="veh_passenger"/>
    <trip id="veh32" depart="37.64" departLane="best" from="-223640816#2" to="-223640813#1" type="veh_passenger"/>
    <trip id="veh33" depart="38.82" departLane="best" from="223403444#1" to="-223640816#1" type="veh_passenger"/>
    <trip id="veh35" depart="41.17" departLane="best" from="-484563087#2" to="-223556865" type="veh_passenger"/>
    <trip id="veh37" depart="43.52" departLane="best" from="-223404341#4" to="-223403444#2" type="veh_passenger"/>
    <trip id="veh39" depart="45.88" departLane="best" from="-223404325#1" to="-223641164" type="veh_passenger"/>
    <trip id="veh40" depart="47.05" departLane="best" from="641301568#0" to="223391574" type="veh_passenger"/>
    <trip id="veh41" depart="48.23" departLane="best" from="641301554#0" to="223641148#4" type="veh_passenger"/>
    <trip id="veh42" depart="49.40" departLane="best" from="-223640817#0" to="223415724#9" type="veh_passenger"/>
    <trip id="veh43" depart="50.58" departLane="best" from="-641301568#0" to="523699569#8" type="veh_passenger"/>
    <trip id="veh44" depart="51.76" departLane="best" from="223391412#0" to="-223531010#3" type="veh_passenger"/>
    <trip id="veh45" depart="52.93" departLane="best" from="270435934" to="223641158#0" type="veh_passenger"/>
    <trip id="veh46" depart="54.11" departLane="best" from="-223640820#5" to="223415724#8" type="veh_passenger"/>
    <trip id="veh47" depart="55.29" departLane="best" from="223404341#4" to="-223503265#1" type="veh_passenger"/>
    <trip id="veh48" depart="56.46" departLane="best" from="223640811#1" to="223403162#2" type="veh_passenger"/>
    <trip id="veh49" depart="57.64" departLane="best" from="223640814#1" to="223391576" type="veh_passenger"/>
    <trip id="veh50" depart="58.81" departLane="best" from="-223391207#0" to="-223640825#0" type="veh_passenger"/>
    <trip id="veh51" depart="59.99" departLane="best" from="-223391412#2" to="523699569#11" type="veh_passenger"/>
    <trip id="veh52" depart="61.17" departLane="best" from="-223640821#4" to="-223403444#8" type="veh_passenger"/>
    <trip id="veh53" depart="62.34" departLane="best" from="223641156#0" to="523699569#5" type="veh_passenger"/>
    <trip id="veh54" depart="63.52" departLane="best" from="-223404341#0" to="223391216#8" type="veh_passenger"/>
    <trip id="veh55" depart="64.70" departLane="best" from="-223404328#0" to="223640814#0" type="veh_passenger"/>
    <trip id="veh56" depart="65.87" departLane="best" from="223640812#1" to="-223415724#2" type="veh_passenger"/>
    <trip id="veh57" depart="67.05" departLane="best" from="223391216#0" to="223403444#3" type="veh_passenger"/>
    <trip id="veh58" depart="68.23" departLane="best" from="-223640816#2" to="223641158#1" type="veh_passenger"/>
    <trip id="veh60" depart="70.58" departLane="best" from="223403162#0" to="223555676#1" type="veh_passenger"/>
    <trip id="veh61" depart="71.75" departLane="best" from="-223555572#4" to="-223640821#6" type="veh_passenger"/>
    <trip id="veh63" depart="74.11" departLane="best" from="-223415724#0" to="-223640805#2" type="veh_passenger"/>
    <trip id="veh64" depart="75.28" departLane="best" from="-223640831#1" to="223404341#0" type="veh_passenger"/>
    <trip id="veh65" depart="76.46" departLane="best" from="-223640806#0" to="-223556865" type="veh_passenger"/>
    <trip id="veh66" depart="77.64" departLane="best" from="-223640806#0" to="484563086#1" type="veh_passenger"/>
    <trip id="veh67" depart="78.81" departLane="best" from="223640826#1" to="-223404328#0" type="veh_passenger"/>
    <trip id="veh68" depart="79.99" departLane="best" from="-223640812#0" to="223503267#0" type="veh_passenger"/>
    <trip id="veh69" depart="81.16" departLane="best" from="-223555675#3" to="-223415724#5" type="veh_passenger"/>
    <trip id="veh70" depart="82.34" departLane="best" from="523699569#0" to="223404328#0" type="veh_passenger"/>
    <trip id="veh71" depart="83.52" departLane="best" from="223391216#0" to="223640817#3" type="veh_passenger"/>
    <trip id="veh72" depart="84.69" departLane="best" from="223640819#0" to="-223555563#4" type="veh_passenger"/>
    <trip id="veh74" depart="87.05" departLane="best" from="223555572#4" to="223506806#0" type="veh_passenger"/>
    <trip id="veh75" depart="88.22" departLane="best" from="-484563087#2" to="-223640831#2" type="veh_passenger"/>
    <trip id="veh76" depart="89.40" departLane="best" from="223640829" to="-223640814#0" type="veh_passenger"/>
    <trip id="veh77" depart="90.57" departLane="best" from="-223555563#4" to="-641301563#0" type="veh_passenger"/>
    <trip id="veh79" depart="92.93" departLane="best" from="-223640814#0" to="523699569#1" type="veh_passenger"/>
    <trip id="veh80" depart="94.10" departLane="best" from="-641301560#0" to="223641148#4" type="veh_passenger"/>
    <trip id="veh81" depart="95.28" departLane="best" from="223403162#0" to="-223403444#4" type="veh_passenger"/>
    <trip id="veh82" depart="96.46" departLane="best" from="641301568#1" to="223640825#0" type="veh_passenger"/>
    <trip id="veh83" depart="97.63" departLane="best" from="641301550" to="523699569#10" type="veh_passenger"/>
    <trip id="veh84" depart="98.81" departLane="best" from="223640824#1" to="-223506806#0" type="veh_passenger"/>
    <trip id="veh85" depart="99.99" departLane="best" from="223391216#0" to="-223555675#3" type="veh_passenger"/>
    <trip id="veh86" depart="101.16" departLane="best" from="-484563087#2" to="-223403444#8" type="veh_passenger"/>
    <trip id="veh87" depart="102.34" departLane="best" from="-223641160#8" to="641301562" type="veh_passenger"/>
    <trip id="veh88" depart="103.51" departLane="best" from="640406765#1" to="641301566#1" type="veh_passenger"/>
    <trip id="veh89" depart="104.69" departLane="best" from="-223503265#2" to="-223640820#4" type="veh_passenger"/>
    <trip id="veh90" depart="105.87" departLane="best" from="223403162#0" to="223640811#1" type="veh_passenger"/>
    <trip id="veh91" depart="107.04" departLane="best" from="223391412#1" to="223641148#0" type="veh_passenger"/>
    <trip id="veh92" depart="108.22" departLane="best" from="-223404328#5" to="-223555563#2" type="veh_passenger"/>
    <trip id="veh93" depart="109.40" departLane="best" from="-223640811#1" to="-223415715#5" type="veh_passenger"/>
    <trip id="veh94" depart="110.57" departLane="best" from="223641160#0" to="-223640813#1" type="veh_passenger"/>
    <trip id="veh95" depart="111.75" departLane="best" from="-640406765#1" to="223404328#6" type="veh_passenger"/>
    <trip id="veh96" depart="112.92" departLane="best" from="-223640812#1" to="-553237960#0" type="veh_passenger"/>
    <trip id="veh97" depart="114.10" departLane="best" from="-223640823#1" to="223640812#1" type="veh_passenger"/>
    <trip id="veh98" depart="115.28" departLane="best" from="-223404328#2" to="-223555675#3" type="veh_passenger"/>
    <trip id="veh99" depart="116.45" departLane="best" from="-223640816#2" to="523699569#11" type="veh_passenger"/>
    <trip id="veh100" depart="117.63" departLane="best" from="223641156#1" to="223641160#2" type="veh_passenger"/>
    <trip id="veh101" depart="118.81" departLane="best" from="-223641160#3" to="-223503266#1" type="veh_passenger"/>
    <trip id="veh102" depart="119.98" departLane="best" from="223640820#1" to="-223640821#0" type="veh_passenger"/>
    <trip id="veh103" depart="121.16" departLane="best" from="223503263#0" to="523699569#11" type="veh_passenger"/>
    <trip id="veh104" depart="122.34" departLane="best" from="-223415713" to="223403444#5" type="veh_passenger"/>
    <trip id="veh105" depart="123.51" departLane="best" from="-223640817#3" to="223415705" type="veh_passenger"/>
    <trip id="veh106" depart="124.69" departLane="best" from="223555563#4" to="-223555674#0" type="veh_passenger"/>
    <trip id="veh107" depart="125.86" departLane="best" from="223415715#4" to="-223640816#2" type="veh_passenger"/>
    <trip id="veh108" depart="127.04" departLane="best" from="223391216#2" to="484563086#1" type="veh_passenger"/>
    <trip id="veh109" depart="128.22" departLane="best" from="223640823#2" to="-223404341#4" type="veh_passenger"/>
    <trip id="veh111" depart="130.57" departLane="best" from="-223391207#1" to="223640815#2" type="veh_passenger"/>
    <trip id="veh112" depart="131.75" departLane="best" from="223415715#5" to="-223640816#1" type="veh_passenger"/>
    <trip id="veh113" depart="132.92" departLane="best" from="223555675#3" to="223403444#4" type="veh_passenger"/>
    <trip id="veh114" depart="134.10" departLane="best" from="-641301537" to="-223391207#4" type="veh_passenger"/>
    <trip id="veh115" depart="135.27" departLane="best" from="-223404328#3" to="223641160#4" type="veh_passenger"/>
    <trip id="veh116" depart="136.45" departLane="best" from="223641160#7" to="223403444#1" type="veh_passenger"/>
    <trip id="veh117" depart="137.63" departLane="best" from="223640821#3" to="223404328#5" type="veh_passenger"/>
    <trip id="veh118" depart="138.80" departLane="best" from="-223503263#2" to="-223415724#11" type="veh_passenger"/>
    <trip id="veh120" depart="141.16" departLane="best" from="223640817#1" to="223641148#4" type="veh_passenger"/>
    <trip id="veh121" depart="142.33" departLane="best" from="223641160#4" to="-223555675#1" type="veh_passenger"/>
    <trip id="veh122" depart="143.51" departLane="best" from="-223640814#0" to="-223415705" type="veh_passenger"/>
    <trip id="veh123" depart="144.68" departLane="best" from="223640814#2" to="223641160#5" type="veh_passenger"/>
    <trip id="veh124" depart="145.86" departLane="best" from="-484563087#2" to="223415715#5" type="veh_passenger"/>
    <trip id="veh125" depart="147.04" departLane="best" from="-223503265#2" to="523699569#11" type="veh_passenger"/>
    <trip id="veh126" depart="148.21" departLane="best" from="223640831#1" to="641301555#0" type="veh_passenger"/>
    <trip id="veh127" depart="149.39" departLane="best" from="223640819#1" to="223641160#3" type="veh_passenger"/>
    <trip id="veh128" depart="150.57" departLane="best" from="-223391414#2" to="223640805#2" type="veh_passenger"/>
    <trip id="veh129" depart="151.74" departLane="best" from="-223640826#1" to="523699569#11" type="veh_passenger"/>
    <trip id="veh130" depart="152.92" departLane="best" from="223640817#4" to="223641156#0" type="veh_passenger"/>
    <trip id="veh131" depart="154.10" departLane="best" from="223640819#1" to="-223640817#0" type="veh_passenger"/>
    <trip id="veh132" depart="155.27" departLane="best" from="223640815#2" to="-223415713" type="veh_passenger"/>
    <trip id="veh133" depart="156.45" departLane="best" from="-223640805#0" to="223640821#2" type="veh_passenger"/>
    <trip id="veh134" depart="157.62" departLane="best" from="223391207#1" to="-223640821#3" type="veh_passenger"/>
    <trip id="veh135" depart="158.80" departLane="best" from="-223391414#2" to="-223555572#0" type="veh_passenger"/>
    <trip id="veh136" depart="159.98" departLane="best" from="-223640825#2" to="223641156#1" type="veh_passenger"/>
    <trip id="veh137" depart="161.15" departLane="best" from="641301537" to="-223640817#7" type="veh_passenger"/>
    <trip id="veh138" depart="162.33" departLane="best" from="223415724#0" to="-553237960#0" type="veh_passenger"/>
    <trip id="veh140" depart="164.68" departLane="best" from="223555572#4" to="-223640823#0" type="veh_passenger"/>
    <trip id="veh142" depart="167.03" departLane="best" from="-270435934" to="223404328#2" type="veh_passenger"/>
    <trip id="veh143" depart="168.21" departLane="best" from="-223640815#0" to="223555572#2" type="veh_passenger"/>
    <trip id="veh144" depart="169.39" departLane="best" from="-223391207#0" to="523699569#10" type="veh_passenger"/>
    <trip id="veh145" depart="170.56" departLane="best" from="223403162#0" to="223555675#0" type="veh_passenger"/>
    <trip id="veh146" depart="171.74" departLane="best" from="223555675#3" to="223503267#1" type="veh_passenger"/>
    <trip id="veh147" depart="172.92" departLane="best" from="-223641160#1" to="-223404328#0" type="veh_passenger"/>
    <trip id="veh148" depart="174.09" departLane="best" from="223503263#0" to="-223640826#0" type="veh_passenger"/>
    <trip id="veh149" depart="175.27" departLane="best" from="-223640823#0" to="223640831#0" type="veh_passenger"/>
    <trip id="veh150" depart="176.44" departLane="best" from="-223640821#5" to="-553237960#1" type="veh_passenger"/>
    <trip id="veh151" depart="177.62" departLane="best" from="-484563087#2" to="-223640820#4" type="veh_passenger"/>
    <trip id="veh152" depart="178.80" departLane="best" from="-223415724#11" to="-641301529" type="veh_passenger"/>
    <trip id="veh153" depart="179.97" departLane="best" from="523699569#1" to="223506806#2" type="veh_passenger"/>
    <trip id="veh154" depart="181.15" departLane="best" from="223641160#6" to="223415715#2" type="veh_passenger"/>
    <trip id="veh155" depart="182.33" departLane="best" from="-223391207#0" to="-223640819#3" type="veh_passenger"/>
    <trip id="veh156" depart="183.50" departLane="best" from="-641301550" to="223404328#4" type="veh_passenger"/>
    <trip id="veh157" depart="184.68" departLane="best" from="-641301558" to="-223555675#3" type="veh_passenger"/>
    <trip id="veh158" depart="185.86" departLane="best" from="223391216#0" to="484563086#0" type="veh_passenger"/>
    <trip id="veh159" depart="187.03" departLane="best" from="223640817#1" to="-223506806#2" type="veh_passenger"/>
    <trip id="veh161" depart="189.38" departLane="best" from="223415715#3" to="-223640831#0" type="veh_passenger"/>
    <trip id="veh162" depart="190.56" departLane="best" from="223503265#1" to="-223640805#2" type="veh_passenger"/>
    <trip id="veh164" depart="192.91" departLane="best" from="-223640813#0" to="223391216#3" type="veh_passenger"/>
    <trip id="veh165" depart="194.09" departLane="best" from="223640824#1" to="-223404328#1" type="veh_passenger"/>
    <trip id="veh166" depart="195.27" departLane="best" from="-553237960#4" to="223415724#10" type="veh_passenger"/>
    <trip id="veh167" depart="196.44" departLane="best" from="223391216#6" to="-223640812#3" type="veh_passenger"/>
    <trip id="veh168" depart="197.62" departLane="best" from="223640805#1" to="223640815#2" type="veh_passenger"/>
    <trip id="veh170" depart="199.97" departLane="best" from="-223531010#2" to="640406765#1" type="veh_passenger"/>
    <trip id="veh171" depart="201.15" departLane="best" from="-641301568#1" to="223640820#1" type="veh_passenger"/>
    <trip id="veh172" depart="202.32" departLane="best" from="223404328#4" to="523699569#6" type="veh_passenger"/>
    <trip id="veh173" depart="203.50" departLane="best" from="223641160#0" to="223415715#1" type="veh_passenger"/>
    <trip id="veh175" depart="205.85" departLane="best" from="223641160#3" to="223640806#1" type="veh_passenger"/>
    <trip id="veh176" depart="207.03" departLane="best" from="223391216#0" to="-223640815#2" type="veh_passenger"/>
    <trip id="veh177" depart="208.20" departLane="best" from="-223640813#1" to="223415724#5" type="veh_passenger"/>
    <trip id="veh178" depart="209.38" departLane="best" from="223640812#1" to="223391572" type="veh_passenger"/>
    <trip id="veh179" depart="210.56" departLane="best" from="223415715#0" to="-223640817#4" type="veh_passenger"/>
    <trip id="veh180" depart="211.73" departLane="best" from="-223404328#4" to="-223640819#3" type="veh_passenger"/>
    <trip id="veh181" depart="212.91" departLane="best" from="-223640817#3" to="-223640824#0" type="veh_passenger"/>
    <trip id="veh182" depart="214.09" departLane="best" from="223403162#0" to="-223415924#0" type="veh_passenger"/>
    <trip id="veh183" depart="215.26" departLane="best" from="-223640806#1" to="223555563#0" type="veh_passenger"/>
    <trip id="veh184" depart="216.44" departLane="best" from="223531016#0" to="-223404325#1" type="veh_passenger"/>
    <trip id="veh185" depart="217.62" departLane="best" from="-640406765#0" to="-223555675#0" type="veh_passenger"/>
    <trip id="veh186" depart="218.79" departLane="best" from="-641301529" to="484563086#1" type="veh_passenger"/>
    <trip id="veh187" depart="219.97" departLane="best" from="223404325#2" to="223555563#1" type="veh_passenger"/>
    <trip id="veh188" depart="221.14" departLane="best" from="-223641164" to="-223391207#2" type="veh_passenger"/>
    <trip id="veh189" depart="222.32" departLane="best" from="-223641156#0" to="223640812#2" type="veh_passenger"/>
    <trip id="veh190" depart="223.50" departLane="best" from="-640406765#1" to="223640811#1" type="veh_passenger"/>
    <trip id="veh191" depart="224.67" departLane="best" from="223403162#0" to="223415704" type="veh_passenger"/>
    <trip id="veh192" depart="225.85" departLane="best" from="-223640805#0" to="-223556865" type="veh_passenger"/>
    <trip id="veh194" depart="228.20" departLane="best" from="-223640831#0" to="223531010#0" type="veh_passenger"/>
    <trip id="veh195" depart="229.38" departLane="best" from="-484563087#2" to="-223503269" type="veh_passenger"/>
    <trip id="veh197" depart="231.73" departLane="best" from="-484563087#2" to="223404325#0" type="veh_passenger"/>
    <trip id="veh198" depart="232.91" departLane="best" from="-223391416#0" to="223415924#0" type="veh_passenger"/>
    <trip id="veh199" depart="234.08" departLane="best" from="-223403444#4" to="-223641160#8" type="veh_passenger"/>
    <trip id="veh200" depart="235.26" departLane="best" from="-223555675#2" to="-223640825#2" type="veh_passenger"/>
    <trip id="veh201" depart="236.44" departLane="best" from="223640811#0" to="-223641160#8" type="veh_passenger"/>
    <trip id="veh202" depart="237.61" departLane="best" from="-223640814#2" to="-223404328#6" type="veh_passenger"/>
    <trip id="veh203" depart="238.79" departLane="best" from="-223391412#2" to="223403162#2" type="veh_passenger"/>
    <trip id="veh204" depart="239.96" departLane="best" from="641301568#1" to="-223641148#4" type="veh_passenger"/>
    <trip id="veh205" depart="241.14" departLane="best" from="223415724#4" to="223640817#1" type="veh_passenger"/>
    <trip id="veh206" depart="242.32" departLane="best" from="223415724#5" to="223640812#3" type="veh_passenger"/>
    <trip id="veh207" depart="243.49" departLane="best" from="523699569#6" to="-223555572#3" type="veh_passenger"/>
    <trip id="veh208" depart="244.67" departLane="best" from="-223391414#0" to="-223503265#1" type="veh_passenger"/>
    <trip id="veh209" depart="245.85" departLane="best" from="-223415724#11" to="223503267#1" type="veh_passenger"/>
    <trip id="veh210" depart="247.02" departLane="best" from="223531010#2" to="223640815#0" type="veh_passenger"/>
    <trip id="veh211" depart="248.20" departLane="best" from="-223506806#1" to="223415710" type="veh_passenger"/>
    <trip id="veh215" depart="252.90" departLane="best" from="-223640821#6" to="223506806#2" type="veh_passenger"/>
    <trip id="veh216" depart="254.08" departLane="best" from="640406765#1" to="-553237960#0" type="veh_passenger"/>
    <trip id="veh217" depart="255.26" departLane="best" from="223555563#3" to="-223404328#3" type="veh_passenger"/>
    <trip id="veh218" depart="256.43" departLane="best" from="-223415704" to="223640816#0" type="veh_passenger"/>
    <trip id="veh219" depart="257.61" departLane="best" from="223640824#1" to="223404452#2" type="veh_passenger"/>
    <trip id="veh220" depart="258.79" departLane="best" from="223640815#0" to="-223641148#3" type="veh_passenger"/>
    <trip id="veh221" depart="259.96" departLane="best" from="-641301537" to="-223641160#4" type="veh_passenger"/>
    <trip id="veh222" depart="261.14" departLane="best" from="223391414#0" to="-223641148#0" type="veh_passenger"/>
    <trip id="veh224" depart="263.49" departLane="best" from="223415715#4" to="223640823#1" type="veh_passenger"/>
    <trip id="veh225" depart="264.67" departLane="best" from="223531016#1" to="-641301555#0" type="veh_passenger"/>
    <trip id="veh227" depart="267.02" departLane="best" from="-223640817#2" to="223640820#4" type="veh_passenger"/>
    <trip id="veh228" depart="268.20" departLane="best" from="223403162#0" to="223391216#7" type="veh_passenger"/>
    <trip id="veh229" depart="269.37" departLane="best" from="-641301555#0" to="223556865" type="veh_passenger"/>
    <trip id="veh230" depart="270.55" departLane="best" from="223640821#2" to="-223404341#1" type="veh_passenger"/>
    <trip id="veh231" depart="271.72" departLane="best" from="223641156#1" to="-223640812#3" type="veh_passenger"/>
    <trip id="veh233" depart="274.08" departLane="best" from="223640825#0" to="-223555563#0" type="veh_passenger"/>
    <trip id="veh234" depart="275.25" departLane="best" from="-223555675#2" to="223640819#3" type="veh_passenger"/>
    <trip id="veh235" depart="276.43" departLane="best" from="-223640831#2" to="223641160#3" type="veh_passenger"/>
    <trip id="veh236" depart="277.61" departLane="best" from="223531010#3" to="-223640817#5" type="veh_passenger"/>
    <trip id="veh237" depart="278.78" departLane="best" from="-223391207#5" to="523699569#5" type="veh_passenger"/>
    <trip id="veh238" depart="279.96" departLane="best" from="-223404341#0" to="223555675#0" type="veh_passenger"/>
    <trip id="veh239" depart="281.14" departLane="best" from="223391216#2" to="223640813#1" type="veh_passenger"/>
    <trip id="veh240" depart="282.31" departLane="best" from="223506806#0" to="223503261" type="veh_passenger"/>
    <trip id="veh241" depart="283.49" departLane="best" from="223391216#3" to="223640819#0" type="veh_passenger"/>
    <trip id="veh242" depart="284.66" departLane="best" from="-223404341#5" to="-223640805#0" type="veh_passenger"/>
    <trip id="veh243" depart="285.84" departLane="best" from="223506806#1" to="-223640821#3" type="veh_passenger"/>
    <trip id="veh244" depart="287.02" departLane="best" from="223404325#1" to="223391216#2" type="veh_passenger"/>
    <trip id="veh246" depart="289.37" departLane="best" from="223555676#1" to="-223640826#1" type="veh_passenger"/>
    <trip id="veh247" depart="290.55" departLane="best" from="223531010#4" to="-223640817#2" type="veh_passenger"/>
    <trip id="veh248" depart="291.72" departLane="best" from="-223640814#1" to="-223415724#0" type="veh_passenger"/>
    <trip id="veh249" depart="292.90" departLane="best" from="-223555563#5" to="-223415715#5" type="veh_passenger"/>
    <trip id="veh250" depart="294.07" departLane="best" from="223403162#0" to="223640814#1" type="veh_passenger"/>
    <trip id="veh251" depart="295.25" departLane="best" from="-223555563#2" to="-223555676#0" type="veh_passenger"/>
    <trip id="veh252" depart="296.43" departLane="best" from="223391216#0" to="223555675#3" type="veh_passenger"/>
    <trip id="veh254" depart="298.78" departLane="best" from="-223640819#1" to="-223415704" type="veh_passenger"/>
    <trip id="veh255" depart="299.96" departLane="best" from="-223555572#0" to="-223640805#3" type="veh_passenger"/>
    <trip id="veh257" depart="302.31" departLane="best" from="223403161#1" to="-223640817#4" type="veh_passenger"/>
    <trip id="veh258" depart="303.49" departLane="best" from="641301554#1" to="223403444#5" type="veh_passenger"/>
    <trip id="veh259" depart="304.66" departLane="best" from="223531010#1" to="-223415724#11" type="veh_passenger"/>
    <trip id="veh260" depart="305.84" departLane="best" from="223641148#0" to="223391216#8" type="veh_passenger"/>
    <trip id="veh261" depart="307.01" departLane="best" from="223641148#2" to="223404328#1" type="veh_passenger"/>
    <trip id="veh262" depart="308.19" departLane="best" from="223391207#6" to="-641301557" type="veh_passenger"/>
    <trip id="veh263" depart="309.37" departLane="best" from="-223555563#1" to="-223403444#5" type="veh_passenger"/>
    <trip id="veh264" depart="310.54" departLane="best" from="523699569#10" to="223391216#5" type="veh_passenger"/>
    <trip id="veh265" depart="311.72" departLane="best" from="223640820#3" to="-553237960#0" type="veh_passenger"/>
    <trip id="veh266" depart="312.90" departLane="best" from="-223404328#2" to="223415724#10" type="veh_passenger"/>
    <trip id="veh267" depart="314.07" departLane="best" from="223403444#1" to="-223640821#2" type="veh_passenger"/>
    <trip id="veh268" depart="315.25" departLane="best" from="223640812#0" to="223415710" type="veh_passenger"/>
    <trip id="veh269" depart="316.42" departLane="best" from="223640816#1" to="-223640805#2" type="veh_passenger"/>
    <trip id="veh270" depart="317.60" departLane="best" from="223391573#0" to="-641301565" type="veh_passenger"/>
    <trip id="veh271" depart="318.78" departLane="best" from="-641301558" to="223641148#3" type="veh_passenger"/>
    <trip id="veh272" depart="319.95" departLane="best" from="641301563#1" to="-223640821#3" type="veh_passenger"/>
    <trip id="veh273" depart="321.13" departLane="best" from="223555675#2" to="523699569#5" type="veh_passenger"/>
    <trip id="veh274" depart="322.31" departLane="best" from="223415924#1" to="-223503266#0" type="veh_passenger"/>
    <trip id="veh275" depart="323.48" departLane="best" from="-223531010#1" to="-223404328#3" type="veh_passenger"/>
    <trip id="veh276" depart="324.66" departLane="best" from="223404328#3" to="-223640820#1" type="veh_passenger"/>
    <trip id="veh277" depart="325.83" departLane="best" from="-223640806#1" to="223555572#1" type="veh_passenger"/>
    <trip id="veh278" depart="327.01" departLane="best" from="223531010#4" to="-641301568#0" type="veh_passenger"/>
    <trip id="veh279" depart="328.19" departLane="best" from="223503269" to="523699569#1" type="veh_passenger"/>
    <trip id="veh280" depart="329.36" departLane="best" from="223640816#0" to="223415724#0" type="veh_passenger"/>
    <trip id="veh281" depart="330.54" departLane="best" from="223415924#1" to="523699569#11" type="veh_passenger"/>
    <trip id="veh283" depart="332.89" departLane="best" from="223415724#11" to="484563086#4" type="veh_passenger"/>
    <trip id="veh284" depart="334.07" departLane="best" from="223640820#5" to="-223404328#1" type="veh_passenger"/>
    <trip id="veh285" depart="335.25" departLane="best" from="-223506806#0" to="-223640821#4" type="veh_passenger"/>
    <trip id="veh286" depart="336.42" departLane="best" from="223640805#0" to="223404325#3" type="veh_passenger"/>