<?xml version="1.0" encoding="UTF-8"?>

<!-- generated on 03/17/19 20:46:33 by Eclipse SUMO duarouter Version 1.0.1
<configuration xmlns:xsi="http://www.w3.org/2001/XMLSchema-instance" xsi:noNamespaceSchemaLocation="http://sumo.dlr.de/xsd/duarouterConfiguration.xsd">

    <input>
        <net-file value="osm.net.xml"/>
        <route-files value="osm.motorcycle.trips.xml"/>
    </input>

    <output>
        <output-file value="osm.motorcycle.rou.xml"/>
        <alternatives-output value="osm.motorcycle.rou.alt.xml"/>
    </output>

    <time>
        <begin value="0"/>
        <end value="3600.0"/>
    </time>

    <report>
        <no-warnings value="true"/>
        <ignore-errors value="true"/>
        <no-step-log value="true"/>
    </report>

</configuration>
-->

<routes xmlns:xsi="http://www.w3.org/2001/XMLSchema-instance" xsi:noNamespaceSchemaLocation="http://sumo.dlr.de/xsd/routes_file.xsd">
    <vType id="moto_motorcycle" vClass="motorcycle"/>
    <vehicle id="moto1" type="moto_motorcycle" depart="1.47" departLane="best">
        <route edges="-223640817#5 -223640817#4 223640826#0 223640826#1 223640814#1 223640831#0 223640831#1 223640831#2 -223640805#2"/>
    </vehicle>
    <vehicle id="moto2" type="moto_motorcycle" depart="2.94" departLane="best">
        <route edges="223555675#1 -223555675#1 -223555675#0 523699569#1 523699569#2 523699569#3 223391216#5 223391216#6-AddedOnRampEdge 223391216#6 -223415924#1 -223415924#0 -223404452#0 223403444#5 223403444#6 -223404328#5 -223404341#5 -223404341#4 -223404341#2 -223506806#2 223506806#2"/>
    </vehicle>
    <vehicle id="moto3" type="moto_motorcycle" depart="4.41" departLane="best">
        <route edges="223641160#1 223640825#1 223640825#2 223640817#2 223640817#3 223640817#4 223640817#5 223640817#7 -223640821#2 223640823#0 223640823#1 223640823#2 -484563087#0 -553237960#4 223391216#5 223391216#6-AddedOnRampEdge 223391216#6 -223415924#1 -223415924#0 -223404452#0 223403444#5 223403444#6 -223404328#5 -223404341#5 -223404341#4 -223404341#2 -223404341#1"/>
    </vehicle>
    <vehicle id="moto6" type="moto_motorcycle" depart="8.82" departLane="best">
        <route edges="-223391416#0 223391416#0 223391414#1 223391414#2 223391216#1 223391216#2 223391216#3 223403162#4 484563086#0-AddedOnRampEdge 484563086#0 -223555563#5 -223531010#1 -223555572#4 -223555572#3"/>
    </vehicle>
    <vehicle id="moto7" type="moto_motorcycle" depart="10.29" departLane="best">
        <route edges="223415724#2 -223415713 -223415715#3 -223415715#2 -223415715#1 -223415715#0 -223404452#1 223415924#0 223403444#1"/>
    </vehicle>
    <vehicle id="moto8" type="moto_motorcycle" depart="11.76" departLane="best">
        <route edges="-223640805#0 -223640813#0 223641156#1 223641156#2 223641156#3 -484563087#1 -484563087#0 -553237960#4 223391216#5 223391216#6-AddedOnRampEdge 223391216#6 -223415924#1 -223415924#0 -223404452#0 223403444#5 223403444#6 -223404328#5 -223404341#5 -223404341#4 -223404341#2 -223404341#1 223404341#1"/>
    </vehicle>
    <vehicle id="moto9" type="moto_motorcycle" depart="13.23" departLane="best">
        <route edges="223640819#1 -223640819#1 -223640819#0 -223640821#5 223641156#0 223641156#1 223641156#2 223641156#3 -484563087#1 -484563087#0 -553237960#4 223391216#5 223391216#6-AddedOnRampEdge 223391216#6 223391216#7 -223391207#6 -223391207#5 -223391207#4 -223391207#3"/>
    </vehicle>
    <vehicle id="moto10" type="moto_motorcycle" depart="14.70" departLane="best">
        <route edges="223640817#7 -223640821#2 223640823#0 223640823#1 223640823#2 -484563087#0 -553237960#4 223403162#4 484563086#0-AddedOnRampEdge 484563086#0 -223555563#5 -223555563#4 -223555563#3 223555563#3"/>
    </vehicle>
    <vehicle id="moto11" type="moto_motorcycle" depart="16.17" departLane="best">
        <route edges="-223641148#1 223641148#1 223641170 223640823#1 223640823#2 -484563087#0 -553237960#4 -553237960#2 -553237960#1-AddedOnRampEdge -553237960#1 -223503266#2 -223503266#1 -223503266#0"/>
    </vehicle>
    <vehicle id="moto12" type="moto_motorcycle" depart="17.64" departLane="best">
        <route edges="640406765#1 -640406765#1 -640406765#0 -223415715#5 -223415715#4 -223415715#3 -223415715#2 -223415715#1 -223415715#0 -223404452#1 -223404452#0 223403444#5 223403444#6 223404328#6 223403162#1 223403162#1-AddedOffRampEdge 223403162#2 523699569#5 523699569#6 223640821#0 223640821#1 223640821#2 -223640817#7 -223640817#5 -223640817#4 223640826#0 223640826#1 223640814#1 223640831#0 223640831#1 223640831#2 -223640831#2"/>
    </vehicle>
    <vehicle id="moto13" type="moto_motorcycle" depart="19.11" departLane="best">
        <route edges="-223404341#5 223404341#5 223404328#5 -223403444#6 -223403444#5 223404452#0 223404452#1 -223404452#1"/>
    </vehicle>
    <vehicle id="moto14" type="moto_motorcycle" depart="20.59" departLane="best">
        <route edges="223640819#0 -223640819#0 -223640821#5 223641156#0 223641156#1 223641156#2 223641156#3 -484563087#1 -484563087#0 -553237960#4 223403162#4 484563086#0-AddedOnRampEdge 484563086#0 484563086#1 484563086#3 -223556865 223556865"/>
    </vehicle>
    <vehicle id="moto15" type="moto_motorcycle" depart="22.06" departLane="best">
        <route edges="-223641164 223641148#1 223641170 223640823#1 223640823#2 -484563087#0 -553237960#4 223391216#5 223391216#6-AddedOnRampEdge 223391216#6 -223415924#1 223403444#1 223403444#2 223403444#3 223403444#4"/>
    </vehicle>
    <vehicle id="moto16" type="moto_motorcycle" depart="23.53" departLane="best">
        <route edges="223640821#1 223640823#0 223640823#1 223640823#2 -484563087#0 -553237960#4 223391216#5 223391216#6-AddedOnRampEdge 223391216#6 -223415924#1 -223415924#0 223404452#1 223415715#0 223415715#1 223415715#2 223415715#3 223415715#4"/>
    </vehicle>
    <vehicle id="moto17" type="moto_motorcycle" depart="25.00" departLane="best">
        <route edges="223640831#0 -223640831#0 -223640814#1 -223640826#1 -223640826#0 223640817#4 223640817#5 223640817#7 -223640821#2 223640823#0 223640823#1 223640823#2 -484563087#0 -553237960#4 223391216#5 223391216#6-AddedOnRampEdge 223391216#6 -223415924#1 -223415924#0 -223404452#0 223403444#5 -641301562 -641301560#0 -641301568#0 -223404328#3 223404328#3"/>
    </vehicle>
    <vehicle id="moto18" type="moto_motorcycle" depart="26.47" departLane="best">
        <route edges="223531010#4 523699569#2 523699569#3 223391216#5 223391216#6-AddedOnRampEdge 223391216#6 -223415924#1 223403444#1 223403444#2 -223403444#2"/>
    </vehicle>
    <vehicle id="moto19" type="moto_motorcycle" depart="27.94" departLane="best">
        <route edges="-223640806#0 223640825#2 223640817#2 -223640812#0 -223640811#0 223640826#1 -223640814#0 223640820#2 -223640820#2"/>
    </vehicle>
    <vehicle id="moto20" type="moto_motorcycle" depart="29.41" departLane="best">
        <route edges="-223404328#5 223404328#5 223404328#6 223403162#1 223403162#1-AddedOffRampEdge 223403162#2 523699569#5 523699569#6 523699569#7 523699569#8 -223640812#3 -223640812#2 -223640812#1 -223640812#0 223640811#1 -223640811#1"/>
    </vehicle>
    <vehicle id="moto21" type="moto_motorcycle" depart="30.88" departLane="best">
        <route edges="-223415704 223415704 223391207#4 -223404452#2 -223404452#1 -223404452#0 223403444#5 223403444#6 223404328#6 223403162#1 223403162#1-AddedOffRampEdge 223403162#2 523699569#5 523699569#6 223640821#0 223640821#1 223640821#2 -223640817#7 223641158#0 223641158#1 -223640819#0"/>
    </vehicle>
    <vehicle id="moto22" type="moto_motorcycle" depart="32.35" departLane="best">
        <route edges="223415715#4 -223415715#4 -223415715#3 -223415715#2 -223415715#1 -223415715#0 -223404452#1 -223404452#0 223403444#5 223403444#6 223404328#6 223403162#1 223403162#1-AddedOffRampEdge 223403162#2 523699569#5 523699569#6 523699569#7 523699569#8 -223640812#3 -223641160#2"/>
    </vehicle>
    <vehicle id="moto23" type="moto_motorcycle" depart="33.82" departLane="best">
        <route edges="-223641160#5 223640821#1 223640823#0 223640823#1 223640823#2 -484563087#0 -553237960#4 223403162#4 484563086#0-AddedOnRampEdge 484563086#0 -223555563#5 -223555563#4 -223555563#3 -223555563#2 -223555563#1 -223555675#2"/>
    </vehicle>
    <vehicle id="moto24" type="moto_motorcycle" depart="35.29" departLane="best">
        <route edges="-223640817#1 223640815#0 223640815#1 223640815#2 523699569#11"/>
    </vehicle>
    <vehicle id="moto25" type="moto_motorcycle" depart="36.76" departLane="best">
        <route edges="223415724#11 -223415724#11 -223415724#10 -223415724#9 -223415724#8 -223415724#5 -223415724#4 -223415713 223415713"/>
    </vehicle>
    <vehicle id="moto26" type="moto_motorcycle" depart="38.23" departLane="best">
        <route edges="-223531010#0 223531010#0 223531010#1 223555563#5 484563086#1 484563086#3 -223556865 223556865"/>
    </vehicle>
    <vehicle id="moto27" type="moto_motorcycle" depart="39.70" departLane="best">
        <route edges="-223503269 223503269 -223503265#2 -223503265#1 -223503265#0 223391216#2 223391216#3 523699569#5 523699569#6 223640821#0 223640821#1 223640823#0 -223641170"/>
    </vehicle>
    <vehicle id="moto28" type="moto_motorcycle" depart="41.17" departLane="best">
        <route edges="641301563#1 641301562 -223403444#5 223404452#0 223404452#1 223415715#0 223415715#1 223415715#2 223415715#3 223415713 223415724#4 223415724#5 223415724#8 223415724#9"/>
    </vehicle>
    <vehicle id="moto29" type="moto_motorcycle" depart="42.64" departLane="best">
        <route edges="223403162#2 223403162#4 484563086#0-AddedOnRampEdge 484563086#0 -223555563#5 223531010#2 223531010#3"/>
    </vehicle>
    <vehicle id="moto30" type="moto_motorcycle" depart="44.11" departLane="best">
        <route edges="223640823#1 223640823#2 -484563087#0 223391571 523699569#6 523699569#7 523699569#8 523699569#9 523699569#10 -223640815#2 -223640815#1 -223640815#0 -223640817#0 223640817#0"/>
    </vehicle>
    <vehicle id="moto32" type="moto_motorcycle" depart="47.05" departLane="best">
        <route edges="-223640823#2 -223640823#1 -223640823#0 223640821#2 -223640817#7 -223640817#5 -223640817#4 -223640817#3 -223640817#2"/>
    </vehicle>
    <vehicle id="moto33" type="moto_motorcycle" depart="48.52" departLane="best">
        <route edges="223641148#4 -223640820#0 223640817#5 223640817#7 -223640821#2 223640823#0 223640823#1 223640823#2 -223640823#2"/>
    </vehicle>
    <vehicle id="moto34" type="moto_motorcycle" depart="49.99" departLane="best">
        <route edges="484563086#0 -223555563#5 223531010#2 223531010#3 223531010#4 523699569#2 523699569#3 223391216#5 223391216#6-AddedOnRampEdge 223391216#6 223391216#7 -223391207#6 -223391207#5 -223391207#4 -223391207#3 -223391207#2 -223391207#1 223391207#1"/>
    </vehicle>
    <vehicle id="moto35" type="moto_motorcycle" depart="51.46" departLane="best">
        <route edges="-223640817#0 223640817#0 223640817#1 223640817#2 -223640812#0 -223640811#0 223640826#1 -223640814#0"/>
    </vehicle>
    <vehicle id="moto36" type="moto_motorcycle" depart="52.93" departLane="best">
        <route edges="223403444#0 -223415924#0 -223404452#0 223403444#5 223403444#6 223404328#6 223403162#1 223403162#1-AddedOffRampEdge 223403162#2 523699569#5 523699569#6 523699569#7 -223640816#2"/>
    </vehicle>
    <vehicle id="moto37" type="moto_motorcycle" depart="54.40" departLane="best">
        <route edges="223404325#2 223404325#3 223404328#2 223404328#3 223404328#4 223404328#5 223404328#6 223403162#1 223403162#1-AddedOffRampEdge 223403162#2 223403162#4 484563086#0-AddedOnRampEdge 484563086#0"/>
    </vehicle>
    <vehicle id="moto38" type="moto_motorcycle" depart="55.87" departLane="best">
        <route edges="-484563087#2 -223641156#3 -223641156#2 -223641156#1 223640813#0 223640805#0 -223640805#0"/>
    </vehicle>
    <vehicle id="moto40" type="moto_motorcycle" depart="58.81" departLane="best">
        <route edges="-223404341#4 223404341#4 223404341#5 223404328#5 -223403444#6 -223403444#5 -223403444#4 -223403444#3"/>
    </vehicle>
    <vehicle id="moto41" type="moto_motorcycle" depart="60.29" departLane="best">
        <route edges="-223415715#1 223415715#1 223415715#2 223415715#3 223415713 223415724#4 223415724#5 223415724#8 223415724#9 223415724#10"/>
    </vehicle>
    <vehicle id="moto44" type="moto_motorcycle" depart="64.70" departLane="best">
        <route edges="641301568#0 -641301568#0 223404328#4 223404328#5 223404328#6 223403162#1 223403162#1-AddedOffRampEdge 223403162#2 223403162#4 484563086#0-AddedOnRampEdge 484563086#0 -223555563#5 223531010#2 223531010#3 223531010#4 523699569#2 223391574"/>
    </vehicle>
    <vehicle id="moto45" type="moto_motorcycle" depart="66.17" departLane="best">
        <route edges="641301554#0 -641301554#0 -641301555#0 -223403444#1 -223415924#0 -223404452#0 223403444#5 223403444#6 223404328#6 223403162#1 223403162#1-AddedOffRampEdge 223403162#2 523699569#5 523699569#6 223640821#0 223640821#1 223640821#2 223640821#3 223640821#4 223641156#0"/>
    </vehicle>
    <vehicle id="moto46" type="moto_motorcycle" depart="67.64" departLane="best">
        <route edges="-223391207#5 -223404452#2 -223404452#1 -223404452#0 223403444#5 223403444#6 223404328#6 223403162#1 223403162#1-AddedOffRampEdge 223403162#2 223403162#4 484563086#0-AddedOnRampEdge 484563086#0 -223555563#5 -223555563#4 -223555563#3 -223555563#2 -223555563#1 -223555675#2 223555675#2"/>
    </vehicle>
    <vehicle id="moto47" type="moto_motorcycle" depart="69.11" departLane="best">
        <route edges="223503266#2 -223503266#2 223503263#1 223503263#2 -223503265#0 223391216#2 223391216#3 223391216#5 223391216#6-AddedOnRampEdge 223391216#6 -223415924#1 -223415924#0 -223404452#0 223403444#5 223403444#6 223404328#6 223403162#1"/>
    </vehicle>
    <vehicle id="moto48" type="moto_motorcycle" depart="70.58" departLane="best">
        <route edges="-223640817#1 223640817#1 223640817#2 223640817#3 223640817#4 223640817#5 223640817#7 -223640821#2 223640823#0 223640823#1 223640823#2 -484563087#0 -553237960#4 223391216#5 223391216#6-AddedOnRampEdge 223391216#6 -223415924#1 -223415924#0 223415924#0"/>
    </vehicle>
    <vehicle id="moto49" type="moto_motorcycle" depart="72.05" departLane="best">
        <route edges="-223415715#2 -223415715#1 -223415715#0 -223404452#1 223415924#0 223403444#1 641301555#0 -641301555#0"/>
    </vehicle>
    <vehicle id="moto50" type="moto_motorcycle" depart="73.52" departLane="best">
        <route edges="-641301568#1 -641301568#0 223404328#4 223404328#5 223404328#6 223403162#1 223403162#1-AddedOffRampEdge 223403162#2 523699569#5 523699569#6 523699569#7 523699569#8"/>
    </vehicle>
    <vehicle id="moto51" type="moto_motorcycle" depart="74.99" departLane="best">
        <route edges="223641148#4 -223640820#0 223640817#5 223640816#0 223640816#1 223640816#2 -223640816#2"/>
    </vehicle>
    <vehicle id="moto52" type="moto_motorcycle" depart="76.46" departLane="best">
        <route edges="223391412#0 -223391412#0 -223391573#1 223391414#2 223391216#1 223391216#2 223391216#3 223403162#4 484563086#0-AddedOnRampEdge 484563086#0 -223555563#5 223531010#2 223531010#3 223531010#4 -223531010#4"/>
    </vehicle>
    <vehicle id="moto53" type="moto_motorcycle" depart="77.93" departLane="best">
        <route edges="270435960 -223391416#1 223391414#1 223391414#2 223391216#1 223391216#2 223391216#3 523699569#5 523699569#6 223640821#0 223640821#1 223640821#2 -223640817#7 223641158#0 223641158#1"/>
    </vehicle>
    <vehicle id="moto54" type="moto_motorcycle" depart="79.40" departLane="best">
        <route edges="-223640821#0 223640821#0 223640821#1 223640823#0 223640823#1 223640823#2 -484563087#0 -553237960#4 223391216#5 223391216#6-AddedOnRampEdge 223391216#6 223391216#7 -223391207#6 -223391207#5 -223391207#4 -223415704 -223415724#10 -223415724#9 223415724#9"/>
    </vehicle>
    <vehicle id="moto55" type="moto_motorcycle" depart="80.87" departLane="best">
        <route edges="223404341#2 223404341#4 223404341#5 223404328#5 223404328#6 223403162#1 223403162#1-AddedOffRampEdge 223403162#2 -553237960#2 -553237960#1-AddedOnRampEdge -553237960#1 -223503266#2 223503263#1 223503263#2 223503265#1 223503265#2 -223503265#2"/>
    </vehicle>
    <vehicle id="moto56" type="moto_motorcycle" depart="82.34" departLane="best">
        <route edges="223640811#1 -223640811#1 223640812#0 223640817#3 223640817#4 223640817#5 223640817#7 -223640821#2 223640823#0 223640823#1 223640823#2 -484563087#0 -553237960#4 223391216#5 223391216#6-AddedOnRampEdge 223391216#6 -223415924#1 -223415924#0 -223404452#0 223403444#5 223403444#6 223404328#6 223403162#1 223403162#1-AddedOffRampEdge 223403162#2"/>
    </vehicle>
    <vehicle id="moto57" type="moto_motorcycle" depart="83.81" departLane="best">
        <route edges="223640814#1 -223640814#1 -223640826#1 -223640826#0 223640817#4 223640817#5 223640817#7 -223640821#2 223640823#0 223640823#1 223640823#2 -484563087#0 -553237960#4 223391216#5 223391216#6-AddedOnRampEdge 223391216#6 -223415924#1 -223415924#0 -223404452#0 223403444#5 223403444#6 223404328#6 223403162#1 223403162#1-AddedOffRampEdge 223391576"/>
    </vehicle>
    <vehicle id="moto58" type="moto_motorcycle" depart="85.28" departLane="best">
        <route edges="-223391207#0 223391207#0 223403161#0 223404341#1 223404341#2 223404341#4 223404341#5 223404328#5 223404328#6 223403162#1 223403162#1-AddedOffRampEdge 223403162#2 523699569#5 523699569#6 523699569#7 523699569#8 523699569#9 223640825#0 223640825#1 -223640825#1"/>
    </vehicle>
    <vehicle id="moto59" type="moto_motorcycle" depart="86.75" departLane="best">
        <route edges="-223391412#2 -223391412#1 -223391416#2 -223391416#1 223391414#1 223391414#2 223391216#1 223391216#2 223391216#3 523699569#5 523699569#6 523699569#7 523699569#8 523699569#9 523699569#10 523699569#11"/>
    </vehicle>
    <vehicle id="moto60" type="moto_motorcycle" depart="88.22" departLane="best">
        <route edges="223641156#0 -223641156#0 223640821#5 223640819#0 223640819#1 223640819#2 -223640831#1 223640824#1"/>
    </vehicle>
    <vehicle id="moto61" type="moto_motorcycle" depart="89.69" departLane="best">
        <route edges="-223640821#5 223641156#0 223641156#1 223641156#2 223641156#3 -484563087#1 -484563087#0 -553237960#4 223391216#5 223391216#6-AddedOnRampEdge 223391216#6 -223415924#1 -223415924#0 -223404452#0 223403444#5 223403444#6 -223404328#5 -223404341#5 -223404341#4 -223404341#2 -223404341#1 223403161#1 -223403444#8"/>
    </vehicle>
    <vehicle id="moto62" type="moto_motorcycle" depart="91.16" departLane="best">
        <route edges="223641156#0 223641156#1 223641156#2 223641156#3 -484563087#1 -484563087#0 -553237960#4 223403162#4 484563086#0-AddedOnRampEdge 484563086#0 -223555563#5 223531010#2 223531010#3 223531010#4 523699569#2 523699569#3"/>
    </vehicle>
    <vehicle id="moto63" type="moto_motorcycle" depart="92.63" departLane="best">
        <route edges="-223404328#0 223404328#0 223404328#1 223404328#2 223404328#3 223404328#4 223404328#5 223404328#6 223403162#1 223403162#1-AddedOffRampEdge 223403162#2 523699569#5 523699569#6 223640821#0 223640821#1 223640821#2 -223640817#7 -223640817#5 -223640817#4 223640826#0 223640826#1 223640814#1"/>
    </vehicle>
    <vehicle id="moto64" type="moto_motorcycle" depart="94.10" departLane="best">
        <route edges="223640812#1 -223640812#1 223640817#3 223640817#4 223640817#5 223640817#7 -223640821#2 223640823#0 223640823#1 223640823#2 -484563087#0 -553237960#4 223391216#5 223391216#6-AddedOnRampEdge 223391216#6 223391216#7 -223391207#6 -223391207#5 -223391207#4 -223391207#3 -223391207#2 -223415705 -223415724#2"/>
    </vehicle>
    <vehicle id="moto65" type="moto_motorcycle" depart="95.57" departLane="best">
        <route edges="-223640817#0 223640817#0 223640815#0 223640815#1 -223641160#0 223641160#0"/>
    </vehicle>
    <vehicle id="moto67" type="moto_motorcycle" depart="98.52" departLane="best">
        <route edges="-223555572#4 223555572#4 223531010#1 223531010#2 223531010#3 223531010#4 523699569#2 523699569#3 523699569#5 523699569#6 223640821#0 223640821#1 223640823#0 -223640823#0"/>
    </vehicle>
    <vehicle id="moto68" type="moto_motorcycle" depart="99.99" departLane="best">
        <route edges="641301566#1 641301562 223403444#6 223404328#6 223403162#1 223403162#1-AddedOffRampEdge 223403162#2 -553237960#2 -553237960#1-AddedOnRampEdge -553237960#1 -223503266#2 223503263#1"/>
    </vehicle>
    <vehicle id="moto70" type="moto_motorcycle" depart="102.93" departLane="best">
        <route edges="-223415724#0 223415724#0 223415724#1 223415724#2 -223415713 -223415715#3 -223415715#2 -223415715#1 -223415715#0 -223404452#1 -223404452#0 223403444#5 223403444#6 223404328#6 223403162#1 223403162#1-AddedOffRampEdge 223403162#2 523699569#5 523699569#6 223640821#0 223640821#1 223640821#2 -223640817#7 -223640817#5 -223640817#4 223640826#0 223640826#1 223640814#1 223640831#0 223640831#1 223640831#2 223640805#3 -223640805#3"/>
    </vehicle>
    <vehicle id="moto71" type="moto_motorcycle" depart="104.40" departLane="best">
        <route edges="-223641148#0 223641148#0 223641148#1 223641170 223640823#1 223640823#2 -484563087#0 -553237960#4 223391216#5 223391216#6-AddedOnRampEdge 223391216#6 -223415924#1 -223415924#0 -223404452#0 223403444#5 223403444#6 -223404328#5 -223404341#5 -223404341#4 -223404341#2 -223404341#1 223404341#1"/>
    </vehicle>
    <vehicle id="moto72" type="moto_motorcycle" depart="105.87" departLane="best">
        <route edges="-223640806#1 -223640815#0 223640817#1 223640817#2 -223640812#0 -223640811#0 223640826#1 -223640814#0 223640820#2 223640820#3 223640820#4 -223640805#1 -223640805#0"/>
    </vehicle>
    <vehicle id="moto73" type="moto_motorcycle" depart="107.34" departLane="best">
        <route edges="-223404328#1 223404328#1 223404328#2 223404328#3 641301568#0 641301566#1 641301562 -223403444#5 223404452#0 223404452#1 223415715#0 223415715#1 223415715#2 223415715#3 223415713 -223415724#2 223415724#2"/>
    </vehicle>
    <vehicle id="moto74" type="moto_motorcycle" depart="108.81" departLane="best">
        <route edges="223640829 -223640812#1 223640817#3 223640817#4 223640817#5 223640817#7 -223640821#2 223640823#0 223640823#1 223640823#2 -484563087#0 -553237960#4 223391216#5 223391216#6-AddedOnRampEdge 223391216#6 -223415924#1 -223415924#0 -223404452#0 223403444#5 -641301562 -641301560#0 -641301568#0 -223404328#3 -223404328#2 -223404328#1"/>
    </vehicle>
    <vehicle id="moto75" type="moto_motorcycle" depart="110.28" departLane="best">
        <route edges="-223640812#1 223640817#3 223640817#4 223640817#5 223640817#7 -223640821#2 223640823#0 223640823#1 223640823#2 -484563087#0 -553237960#4 -553237960#2 -553237960#1-AddedOnRampEdge -553237960#1 -223503266#2 223503263#1 223503263#2 223503265#1 223503265#2 -223503269 223503267#1"/>
    </vehicle>
    <vehicle id="moto76" type="moto_motorcycle" depart="111.75" departLane="best">
        <route edges="-223555676#0 223555676#0 -223555675#0 523699569#1 523699569#2 523699569#3 223391216#5 223391216#6-AddedOnRampEdge 223391216#6 223391216#7 -223391207#6 -223391207#5 -223391207#4 -223391207#3 -223415710 -223415724#5"/>
    </vehicle>
    <vehicle id="moto77" type="moto_motorcycle" depart="113.22" departLane="best">
        <route edges="223391216#0 223391216#1 223391216#2 223391216#3 523699569#5 523699569#6 223640821#0 223640821#1 223640821#2 -223640817#7 -223640817#5 -223640817#4 223640817#4"/>
    </vehicle>
    <vehicle id="moto78" type="moto_motorcycle" depart="114.69" departLane="best">
        <route edges="223640819#0 -223640819#0 -223640821#5 223641156#0 223641156#1 223641156#2 223641156#3 -484563087#1 -484563087#0 -553237960#4 223403162#4 484563086#0-AddedOnRampEdge 484563086#0 -223555563#5"/>
    </vehicle>
    <vehicle id="moto79" type="moto_motorcycle" depart="116.16" departLane="best">
        <route edges="-223404452#1 223415924#0 223403444#1 641301555#0 641301554#0 641301554#1 -641301552"/>
    </vehicle>
    <vehicle id="moto81" type="moto_motorcycle" depart="119.10" departLane="best">
        <route edges="223555572#4 223531010#1 223531010#2 223531010#3 223531010#4 523699569#2 523699569#3 223391216#5 223391216#6-AddedOnRampEdge 223391216#6 -223415924#1 -223415924#0 -223404452#0 223403444#5 223403444#6 -223404328#5 -223404341#5 -223404341#4 -223404341#2 -223506806#2 -223506806#1 -223506806#0 223506806#0"/>
    </vehicle>
    <vehicle id="moto82" type="moto_motorcycle" depart="120.57" departLane="best">
        <route edges="641301560#1 641301563#1 641301562 -223403444#5 223404452#0 223404452#1 223404452#2 -223404452#2"/>
    </vehicle>
    <vehicle id="moto83" type="moto_motorcycle" depart="122.04" departLane="best">
        <route edges="-484563087#2 -223641156#3 -223641156#2 -223641164 -223641148#0"/>
    </vehicle>
    <vehicle id="moto84" type="moto_motorcycle" depart="123.51" departLane="best">
        <route edges="223640831#0 -223640831#0 -223640814#1"/>
    </vehicle>
    <vehicle id="moto85" type="moto_motorcycle" depart="124.98" departLane="best">
        <route edges="-223555563#5 223531010#2 223531010#3 223531010#4 523699569#2 523699569#3 223391216#5 223391216#6-AddedOnRampEdge 223391216#6 -223415924#1 -223415924#0 -223404452#0 223403444#5 -641301562 641301560#1 -641301565"/>
    </vehicle>
    <vehicle id="moto87" type="moto_motorcycle" depart="127.92" departLane="best">
        <route edges="-223640814#1 -223640826#1 -223640826#0 223640817#4 223640817#5 223640817#7 -223640821#2 223640823#0 223640823#1 223640823#2 -484563087#0 -553237960#4 223403162#4 484563086#0-AddedOnRampEdge 484563086#0 -223555563#5 -223555563#4 -223555563#3 -223555563#2 -223555563#1 -223555675#2 -223555675#1 -223555675#0 523699569#1"/>
    </vehicle>
    <vehicle id="moto88" type="moto_motorcycle" depart="129.39" departLane="best">
        <route edges="-641301560#0 -641301568#0 223404328#4 223404328#5 223404328#6 223403162#1 223403162#1-AddedOffRampEdge 223403162#2 523699569#5 523699569#6 223640821#0 223640821#1 223640821#2 223640821#3 223640821#4 223641156#0 223641156#1"/>
    </vehicle>
    <vehicle id="moto89" type="moto_motorcycle" depart="130.86" departLane="best">
        <route edges="641301568#1 -641301568#1 -641301568#0 223404328#4 223404328#5 223404328#6 223403162#1 223403162#1-AddedOffRampEdge 223403162#2 523699569#5 523699569#6 523699569#7 523699569#8 523699569#9 223640825#0 223640825#1 223640825#2"/>
    </vehicle>
    <vehicle id="moto90" type="moto_motorcycle" depart="132.33" departLane="best">
        <route edges="223640824#1 -223640820#2 -223640820#1 -223640820#0 223640817#5 223640817#7 -223640821#2 223640823#0 223640823#1 223640823#2 -484563087#0 -553237960#4 223391216#5 223391216#6-AddedOnRampEdge 223391216#6 -223415924#1 -223415924#0 -223404452#0 223403444#5 223403444#6 -223404328#5 -223404341#5 -223404341#4 -223404341#2 -223506806#2 -223506806#1"/>
    </vehicle>
    <vehicle id="moto91" type="moto_motorcycle" depart="133.80" departLane="best">
        <route edges="-223641170 223641170 223640823#1 223640823#2 -484563087#0 -553237960#4 223391216#5 223391216#6-AddedOnRampEdge 223391216#6 -223415924#1 -223415924#0 -223404452#0 223403444#5 -641301562 641301562"/>
    </vehicle>
    <vehicle id="moto92" type="moto_motorcycle" depart="135.27" departLane="best">
        <route edges="-223640817#0 223640817#0 223640817#1 223640817#2 223640817#3 223640817#4"/>
    </vehicle>
    <vehicle id="moto94" type="moto_motorcycle" depart="138.22" departLane="best">
        <route edges="640406765#1 -640406765#1 -640406765#0 -223415715#5 -223415715#4 -223415715#3 -223415715#2 -223415715#1 -223415715#0 -223404452#1 -223404452#0 223403444#5 -641301562 -641301560#0 641301566#1"/>
    </vehicle>
    <vehicle id="moto95" type="moto_motorcycle" depart="139.69" departLane="best">
        <route edges="223403162#1-AddedOffRampEdge 223403162#2 223403162#4 484563086#0-AddedOnRampEdge 484563086#0 -223555563#5 -223555563#4 -223555563#3 -223555563#2 -223555563#1 -223555675#2 -223555675#1 -223555675#0 223555675#0"/>
    </vehicle>
    <vehicle id="moto96" type="moto_motorcycle" depart="141.16" departLane="best">
        <route edges="-223503266#0 223503266#0 223503266#1 223503263#1 223503263#2 -223503265#0 223391216#2 223391216#3 523699569#5 523699569#6 223640821#0 223640821#1 223640821#2 -223640817#7 -223640817#5 223640820#0 223640820#1 223640820#2 223640820#3 223640820#4 223640820#5 -223640820#5"/>
    </vehicle>
    <vehicle id="moto97" type="moto_motorcycle" depart="142.63" departLane="best">
        <route edges="641301537 -641301537 223503266#1 223503263#1 223503263#2 -223503265#0 223391216#2 223391216#3 223391216#5 223391216#6-AddedOnRampEdge 223391216#6 -223415924#1 -223415924#0 -223404452#0 223403444#5 -641301562 -641301560#0 -641301568#0 223404328#4"/>
    </vehicle>
    <vehicle id="moto98" type="moto_motorcycle" depart="144.10" departLane="best">
        <route edges="-223403444#8 -223404331 223404331"/>
    </vehicle>
    <vehicle id="moto99" type="moto_motorcycle" depart="145.57" departLane="best">
        <route edges="223391412#1 -223391412#1 -223391416#2 -223391416#1 223391414#1 223391414#2 223391216#1 223391216#2 223391216#3 523699569#5 523699569#6 223640821#0 223640821#1 223640823#0 -223641170 -223641148#1 223641148#1"/>
    </vehicle>
    <vehicle id="moto100" type="moto_motorcycle" depart="147.04" departLane="best">
        <route edges="-223503266#1 223503266#1 223503263#1 641301529"/>
    </vehicle>
    <vehicle id="moto101" type="moto_motorcycle" depart="148.51" departLane="best">