<?xml version="1.0" encoding="UTF-8"?>

<!-- generated on 03/17/19 20:46:35 by Eclipse SUMO duarouter Version 1.0.1
<configuration xmlns:xsi="http://www.w3.org/2001/XMLSchema-instance" xsi:noNamespaceSchemaLocation="http://sumo.dlr.de/xsd/duarouterConfiguration.xsd">

    <input>
        <net-file value="osm.net.xml"/>
        <route-files value="osm.bus.trips.xml"/>
    </input>

    <output>
        <output-file value="osm.bus.rou.xml"/>
        <alternatives-output value="osm.bus.rou.alt.xml"/>
    </output>

    <time>
        <begin value="0"/>
        <end value="3600.0"/>
    </time>

    <report>
        <no-warnings value="true"/>
        <ignore-errors value="true"/>
        <no-step-log value="true"/>
    </report>

</configuration>
-->

<routes xmlns:xsi="http://www.w3.org/2001/XMLSchema-instance" xsi:noNamespaceSchemaLocation="http://sumo.dlr.de/xsd/routes_file.xsd">
    <vType id="bus_bus" vClass="bus"/>
    <vehicle id="bus1" type="bus_bus" depart="3.92" departLane="best">
        <route edges="-223640817#1 223640817#1 223640817#2 223640817#3 223640817#4 223640817#5 223640817#7 -223640821#2 223640823#0 223640823#1 223640823#2 -484563087#0 -553237960#4 223403162#4 484563086#0-AddedOnRampEdge 484563086#0 -223555563#5 223531010#2 223531010#3 -223555676#1"/>
    </vehicle>
    <vehicle id="bus2" type="bus_bus" depart="7.84" departLane="best">
        <route edges="223641158#1 -223640819#0 -223640821#5 223641156#0 223641156#1 223641156#2 223641156#3 -484563087#1 -484563087#0 -553237960#4 223391216#5 223391216#6-AddedOnRampEdge 223391216#6 -223415924#1 -223415924#0 -223404452#0 223403444#5 223403444#6 -223404328#5 -223404341#5 -223404341#4 -223404341#2 -223404341#1 -223404341#0"/>
    </vehicle>
    <vehicle id="bus5" type="bus_bus" depart="19.60" departLane="best">
        <route edges="-223391416#0 223391416#0 223391414#1 223391414#2 223391216#1 223391216#2 223391216#3 223403162#4 484563086#0-AddedOnRampEdge 484563086#0 -223555563#5 -223555563#4 -223555563#3 -223555563#2 -223555563#1 223555675#3 -223555572#0"/>
    </vehicle>
    <vehicle id="bus6" type="bus_bus" depart="23.53" departLane="best">
        <route edges="-223555676#0 223555676#0 -223555675#0 523699569#1 523699569#2 523699569#3 223391216#5 223391216#6-AddedOnRampEdge 223391216#6 -223415924#1 -223415924#0 -223404452#0 223403444#5 223403444#6 -223404328#5 -223404341#5 -223404341#4 -223404341#2 -223404341#1 -223404341#0 223404341#0"/>
    </vehicle>
    <vehicle id="bus7" type="bus_bus" depart="27.45" departLane="best">
        <route edges="223640819#0 -223640819#0 -223640821#5 223641156#0 223641156#1 223641156#2 223641156#3 -484563087#1 -484563087#0 -553237960#4 223391216#5 223391216#6-AddedOnRampEdge 223391216#6 223391216#7 -223391207#6 -223391207#5 -223391207#4 -223391207#3"/>
    </vehicle>
    <vehicle id="bus8" type="bus_bus" depart="31.37" departLane="best">
        <route edges="640406765#1 -640406765#1 -640406765#0 -223415715#5 -223415715#4 -223415715#3 -223415715#2 -223415715#1 -223415715#0 -223404452#1 -223404452#0 223403444#5 223403444#6 223404328#6 223403162#1 223403162#1-AddedOffRampEdge 223403162#2 523699569#5 523699569#6 523699569#7 523699569#8 523699569#9 223640825#0 223640825#1 223640825#2 -223640825#2"/>
    </vehicle>
    <vehicle id="bus9" type="bus_bus" depart="35.29" departLane="best">
        <route edges="223640826#1 -223640826#1 -223640826#0 223640817#4 223640817#5 223640817#7 -223640821#2 223640823#0 223640823#1 223640823#2 -484563087#0 -553237960#4 223391216#5 223391216#6-AddedOnRampEdge 223391216#6 -223415924#1 -223415924#0 -223404452#0 223403444#5 -641301562 -641301560#0 -641301568#0 -223404328#3 -223404328#2 223404328#2"/>
    </vehicle>
    <vehicle id="bus10" type="bus_bus" depart="39.21" departLane="best">
        <route edges="-223404328#4 223404328#4 223404328#5 223404328#6 223403162#1 223403162#1-AddedOffRampEdge 223403162#2 523699569#5 523699569#6 223640821#0 223640821#1 223640821#2 -223640817#7 -223640817#5 -223640817#4 223640826#0 223640826#1 223640814#1 223640831#0 223640831#1 223640831#2 223640805#3 -223640805#3"/>
    </vehicle>
    <vehicle id="bus11" type="bus_bus" depart="43.13" departLane="best">
        <route edges="-223404452#2 -223404452#1 -223404452#0 223403444#5 223403444#6 223404328#6 223403162#1 223403162#1-AddedOffRampEdge 223403162#2 523699569#5 523699569#6 523699569#7 523699569#8 -223640812#3 -223640812#2 -223640812#1 -223640817#2"/>
    </vehicle>
    <vehicle id="bus12" type="bus_bus" depart="47.05" departLane="best">
        <route edges="223415715#6 223415724#0 223415724#1 223415724#2 -223415713 -223415715#3 -223415715#2 -223415715#1 -223415715#0 -223404452#1 -223404452#0 223403444#5 223403444#6 223404328#6 223403162#1 223403162#1-AddedOffRampEdge 223403162#2 523699569#5 523699569#6 223640821#0 223640821#1 223640823#0 -223641170 -223641148#1 223641164 223641156#2 -223641156#2"/>
    </vehicle>
    <vehicle id="bus13" type="bus_bus" depart="50.97" departLane="best">
        <route edges="-223641158#1 -223641148#3 -223640821#3 -223640821#2 223640823#0 223640823#1 223640823#2 -484563087#0 -553237960#4 223403162#4 484563086#0-AddedOnRampEdge 484563086#0 -223555563#5 -223555563#4 -223555563#3 -223555563#2 -223555563#1 -223555675#2 -223555674#0"/>
    </vehicle>
    <vehicle id="bus14" type="bus_bus" depart="54.89" departLane="best">
        <route edges="-223640816#0 223640816#0 223640816#1 223640816#2 523699569#8 523699569#9 523699569#10 523699569#11"/>
    </vehicle>
    <vehicle id="bus15" type="bus_bus" depart="58.81" departLane="best">
        <route edges="-223506806#0 223506806#0 223506806#1 223506806#2 223404341#2 223404341#4 223404341#5 223404328#5 223404328#6 223403162#1 223403162#1-AddedOffRampEdge 223403162#2 223403162#4 484563086#0-AddedOnRampEdge 484563086#0 -223555563#5 -223555563#4 -223555563#3 -223555563#2 -223555563#1 -223555675#2 223555675#2"/>
    </vehicle>
    <vehicle id="bus17" type="bus_bus" depart="66.66" departLane="best">
        <route edges="223641170 223640823#1 223640823#2 -484563087#0 -553237960#4 223391216#5 223391216#6-AddedOnRampEdge 223391216#6 -223415924#1 -223415924#0 -223404452#0 223403444#5 -641301562 -641301560#0 -641301568#0"/>
    </vehicle>
    <vehicle id="bus18" type="bus_bus" depart="70.58" departLane="best">
        <route edges="223403444#3 223403444#4 223403444#5 223403444#6 223404328#6 223403162#1 223403162#1-AddedOffRampEdge 223403162#2 523699569#5 523699569#6 523699569#7 523699569#8 523699569#9 523699569#10 -223640815#2 -223640815#1"/>
    </vehicle>
    <vehicle id="bus19" type="bus_bus" depart="74.50" departLane="best">
        <route edges="223404328#0 223404328#1 223404328#2 223404328#3 223404328#4 223404328#5 223404328#6 223403162#1 223403162#1-AddedOffRampEdge 223403162#2 523699569#5 523699569#6 223640821#0 223640821#1 223640823#0 -223641170 -223641148#1 -223641148#0 223641160#7"/>
    </vehicle>
    <vehicle id="bus21" type="bus_bus" depart="82.34" departLane="best">
        <route edges="223640816#1 223641160#4 223640821#1 223640823#0 223640823#1 223640823#2 -484563087#0 -553237960#4 223391216#5 223391216#6-AddedOnRampEdge 223391216#6 223391216#7 -223391207#6 -223391207#5 -223391207#4 -223391207#3 -223391207#2 -223415705 -223415724#2 -223415724#1 -223415724#0 640406765#1 -640406765#1"/>
    </vehicle>
    <vehicle id="bus22" type="bus_bus" depart="86.26" departLane="best">
        <route edges="641301554#0 -641301554#0 -641301555#0 -223403444#1 -223415924#0 -223404452#0 223403444#5 223403444#6 223404328#6 223403162#1 223403162#1-AddedOffRampEdge 223403162#2 523699569#5 523699569#6 223640821#0 223640821#1 223640821#2 -223640817#7 -223640817#5 -223640817#4 223640826#0 223640826#1 223640814#1 223640831#0 223640831#1 223640831#2"/>
    </vehicle>
    <vehicle id="bus23" type="bus_bus" depart="90.18" departLane="best">
        <route edges="-223640816#0 223640817#7 -223640821#2 223640823#0 223640823#1 223640823#2 -484563087#0 -553237960#4 223391216#5 223391216#6-AddedOnRampEdge 223391216#6 223391216#7 -223391207#6 -223391207#5 -223391207#4 -223391207#3 -223415710 -223415724#5 223415724#5"/>
    </vehicle>
    <vehicle id="bus24" type="bus_bus" depart="94.10" departLane="best">
        <route edges="-641301565 641301565 641301563#1 641301562 223403444#6 223404328#6 223403162#1 223403162#1-AddedOffRampEdge 223403162#2 523699569#5 523699569#6 523699569#7 523699569#8 523699569#9"/>
    </vehicle>
    <vehicle id="bus25" type="bus_bus" depart="98.02" departLane="best">
        <route edges="223391412#0 -223391412#0 -223391573#1 223391414#2 223391216#1 223391216#2 223391216#3 223403162#4 484563086#0-AddedOnRampEdge 484563086#0 -223555563#5 -223531010#1"/>
    </vehicle>
    <vehicle id="bus26" type="bus_bus" depart="101.95" departLane="best">
        <route edges="-223640820#2 -223640820#1 -223640820#0 223640817#5 223640817#7 -223640821#2 223640823#0 223640823#1 223640823#2 -484563087#0 -553237960#4 223391216#5 223391216#6-AddedOnRampEdge 223391216#6 223391216#7 -223391207#6 -223391207#5 -223391207#4 -223391207#3 -223391207#2 -223415705 223415724#4"/>
    </vehicle>
    <vehicle id="bus27" type="bus_bus" depart="105.87" departLane="best">
        <route edges="-223391207#0 223391207#0 223403161#0 223404341#1 223404341#2 223404341#4 223404341#5 223404328#5 223404328#6 223403162#1 223403162#1-AddedOffRampEdge 223403162#2 523699569#5 523699569#6 223640821#0 223640821#1 223640823#0 223640823#1 -223640823#1"/>
    </vehicle>
    <vehicle id="bus28" type="bus_bus" depart="109.79" departLane="best">
        <route edges="-223391412#2 -223391412#1 -223391416#2 -223391416#1 223391414#1 223391414#2 223391216#1 223391216#2 223391216#3 223403162#4 484563086#0-AddedOnRampEdge 484563086#0 -223555563#5 -223555563#4 -223555563#3 -223555563#2 -223555563#1 -223555675#2 -223555675#1 -223555675#0 523699569#1"/>
    </vehicle>
    <vehicle id="bus29" type="bus_bus" depart="113.71" departLane="best">
        <route edges="-223404325#3 223404325#3 223404328#2 223404328#3 223404328#4 223404328#5 223404328#6 223403162#1 223403162#1-AddedOffRampEdge 223403162#2 523699569#5 523699569#6 523699569#7 523699569#8 -223640812#3 223640812#3"/>
    </vehicle>
    <vehicle id="bus30" type="bus_bus" depart="117.63" departLane="best">
        <route edges="223640812#0 223640817#3 223640817#4 223640817#5 223640817#7 -223640821#2 223640823#0 223640823#1 223640823#2 -484563087#0 -553237960#4 223391216#5 223391216#6-AddedOnRampEdge 223391216#6 223391216#7 -223391207#6 -223391207#5 -223391207#4 -223415704 -223415724#10"/>
    </vehicle>
    <vehicle id="bus31" type="bus_bus" depart="121.55" departLane="best">
        <route edges="-223640815#2 -223640815#1 -223640815#0 223640817#1 223640817#2 223640817#3 223640817#4 223640820#0 -223641148#4 -223641148#3 223640821#4 223641156#0"/>
    </vehicle>
    <vehicle id="bus32" type="bus_bus" depart="125.47" departLane="best">
        <route edges="223403162#0 223403162#1 223403162#1-AddedOffRampEdge 223403162#2 223403162#4 484563086#0-AddedOnRampEdge 484563086#0 -223555563#5 -223555563#4 -223555563#3 -223555563#2 -223555563#1 223555675#3"/>
    </vehicle>
    <vehicle id="bus34" type="bus_bus" depart="133.31" departLane="best">
        <route edges="-223415715#5 -223415715#4 -223415715#3 -223415715#2 -223415715#1 -223415715#0 -223404452#1 -223404452#0 223403444#5 223403444#6 223404328#6 223403162#1 223403162#1-AddedOffRampEdge 223403162#2 223403162#4 484563086#0-AddedOnRampEdge 484563086#0 484563086#1 484563086#3 -223556865"/>
    </vehicle>
    <vehicle id="bus35" type="bus_bus" depart="137.23" departLane="best">
        <route edges="-223640826#0 223640817#4 223640817#5 223640817#7 -223640821#2 223640823#0 223640823#1 223640823#2 -484563087#0 -553237960#4 223391216#5 223391216#6-AddedOnRampEdge 223391216#6 -223415924#1 -223415924#0 -223404452#0 223403444#5 223403444#6 -223404328#5 -223404341#5 -223404341#4 223404331"/>
    </vehicle>
    <vehicle id="bus36" type="bus_bus" depart="141.16" departLane="best">
        <route edges="-223640805#2 -223640820#4 -223640819#1 -223640819#0 -223640821#5 223641156#0 223641156#1 223641156#2 223641156#3 -484563087#1 -484563087#0 -553237960#4 223403162#4 484563086#0-AddedOnRampEdge 484563086#0 -223555563#5 -223555563#4 -223555563#3 -223555563#2 -223555563#1 -223555675#2 -223555675#1 -223555676#0"/>
    </vehicle>
    <vehicle id="bus37" type="bus_bus" depart="145.08" departLane="best">
        <route edges="223640826#0 -223640826#0 223640817#4 223640817#5 223640817#7 -223640821#2 223640823#0 223640823#1 223640823#2 -484563087#0 -553237960#4 223391216#5 223391216#6-AddedOnRampEdge 223391216#6 -223415924#1 -223415924#0 -223404452#0 223403444#5 -641301562 -641301560#0 -641301568#0 -223404328#3 -223404328#2 -223404328#1 -223404328#0"/>
    </vehicle>
    <vehicle id="bus38" type="bus_bus" depart="149.00" departLane="best">
        <route edges="-223640811#0 -223640826#0 223640817#4 223640817#5 223640817#7 -223640821#2 223640823#0 223640823#1 223640823#2 -484563087#0 -553237960#4 -553237960#2 -553237960#1-AddedOnRampEdge -553237960#1 -223503266#2 -223503266#1 223503266#1"/>
    </vehicle>
    <vehicle id="bus39" type="bus_bus" depart="152.92" departLane="best">
        <route edges="523699569#0 523699569#1 523699569#2 523699569#3 223391216#5 223391216#6-AddedOnRampEdge 223391216#6 -223415924#1 -223415924#0 -223404452#0 223403444#5 -641301562 -641301560#0 -641301568#0 -223404328#3 -223404328#2 -223404325#3 223404325#3"/>
    </vehicle>
    <vehicle id="bus40" type="bus_bus" depart="156.84" departLane="best">
        <route edges="223391207#5 -223391207#5 -223404452#2 -223404452#1 -223404452#0 223403444#5 223403444#6 223404328#6 223403162#1 223403162#1-AddedOffRampEdge 223403162#2 523699569#5 523699569#6 523699569#7 523699569#8 523699569#9 523699569#10 -223640815#2 -223640815#1 -223640815#0 -223640817#0 223640817#0"/>
    </vehicle>
    <vehicle id="bus41" type="bus_bus" depart="160.76" departLane="best">
        <route edges="-641301529 223503263#2 -223503265#0 223391216#2 223391216#3 223391216#5 223391216#6-AddedOnRampEdge 223391216#6 223391216#7 -223391207#6 -223391207#5 -223391207#4 -223391207#3 -223391207#2 223391207#2"/>
    </vehicle>
    <vehicle id="bus42" type="bus_bus" depart="164.68" departLane="best">
        <route edges="223555572#4 223531010#1 223531010#2 223531010#3 223531010#4 523699569#2 523699569#3 -553237960#2 -553237960#1-AddedOnRampEdge -553237960#1 -223503266#2 223503263#1 223503263#2 223503265#1 223503265#2 -223503269 -223503267#0 223503267#0"/>
    </vehicle>
    <vehicle id="bus43" type="bus_bus" depart="168.60" departLane="best">
        <route edges="-484563087#2 -223641156#3 -223641156#2 -223641156#1 -223641156#0 223640821#5 223640819#0 223640819#1 -223640820#3 -223640820#2 223640814#0 -223640826#1"/>
    </vehicle>
    <vehicle id="bus44" type="bus_bus" depart="172.52" departLane="best">
        <route edges="-640406765#1 -640406765#0 -223415715#5 -223415715#4 -223415715#3 -223415715#2 -223415715#1 -223415715#0 -223404452#1 -223404452#0 223403444#5 223403444#6 223404328#6 223403162#1 223403162#1-AddedOffRampEdge 223403162#2 523699569#5 523699569#6 223640821#0 223640821#1 223640821#2 -223640817#7 -223640817#5 -223640817#4 -223640817#3"/>
    </vehicle>
    <vehicle id="bus45" type="bus_bus" depart="176.44" departLane="best">
        <route edges="-223640812#3 -223640812#2 -223640812#1 223640817#3 223640817#4 223640817#5 223640817#7 -223640821#2 223640823#0 223640823#1 223640823#2 -484563087#0 -553237960#4 223403162#4 484563086#0-AddedOnRampEdge 484563086#0 484563086#1 484563086#3 484563086#4"/>
    </vehicle>
    <vehicle id="bus46" type="bus_bus" depart="180.37" departLane="best">
        <route edges="641301550 -641301554#0 -641301555#0 -223403444#1 -223415924#0 -223404452#0 223403444#5 223403444#6 223404328#6 223403162#1 223403162#1-AddedOffRampEdge 223403162#2 223403162#4 484563086#0-AddedOnRampEdge 484563086#0 484563086#1 484563086#3 484563086#4"/>
    </vehicle>
    <vehicle id="bus47" type="bus_bus" depart="184.29" departLane="best">
        <route edges="223391216#0 223391216#1 223391216#2 223391216#3 223403162#4 484563086#0-AddedOnRampEdge 484563086#0 -223555563#5 -223555563#4 -223555563#3 -223555563#2 -223555563#1 -223555675#2 -223555675#1"/>
    </vehicle>
    <vehicle id="bus48" type="bus_bus" depart="188.21" departLane="best">
        <route edges="-484563087#1 -484563087#0 -553237960#4 223391216#5 223391216#6-AddedOnRampEdge 223391216#6 -223415924#1 -223415924#0 -223404452#0 223403444#5 223403444#6 -223404328#5 -223404341#5 -223404341#4 -223404341#2 -223404341#1 223403161#1 -223403444#8"/>
    </vehicle>
    <vehicle id="bus49" type="bus_bus" depart="192.13" departLane="best">
        <route edges="223403162#0 223403162#1 223403162#1-AddedOffRampEdge 223403162#2 523699569#5 523699569#6 523699569#7 523699569#8 523699569#9 223640825#0 223640825#1 223640806#0"/>
    </vehicle>
    <vehicle id="bus50" type="bus_bus" depart="196.05" departLane="best">
        <route edges="-223404328#4 223404328#4 223404328#5 223404328#6 223403162#1 223403162#1-AddedOffRampEdge 223403162#2 223403162#4 484563086#0-AddedOnRampEdge 484563086#0 -223555563#5 -223555563#4 -223555563#3 -223555563#2 -223555563#1 -223555563#0"/>
    </vehicle>
    <vehicle id="bus51" type="bus_bus" depart="199.97" departLane="best">
        <route edges="-223640806#0 223640825#2 223640817#2 223640817#3 223640817#4 223640817#5 223640817#7 -223640821#2 223640823#0 223640823#1 223640823#2 -484563087#0 -553237960#4 223391216#5 223391216#6-AddedOnRampEdge 223391216#6 -223415924#1 -223415924#0 223404452#1 223415715#0 223415715#1 223415715#2 223415715#3 223415715#4 -223415715#4"/>
    </vehicle>
    <vehicle id="bus52" type="bus_bus" depart="203.89" departLane="best">
        <route edges="-223641158#1 -223641148#3 -223640821#3 -223640821#2 223640823#0 223640823#1 223640823#2 -484563087#0 -553237960#4 -553237960#2 -553237960#1-AddedOnRampEdge -553237960#1 -223503266#2 223503263#1 223503263#2 223503265#1 223503265#2 -223503265#2"/>
    </vehicle>
    <vehicle id="bus53" type="bus_bus" depart="207.81" departLane="best">
        <route edges="223503263#1 223503263#2 -223503265#0 223391216#2 223391216#3 523699569#5 523699569#6 523699569#7 523699569#8 523699569#9 523699569#10 523699569#11"/>
    </vehicle>
    <vehicle id="bus54" type="bus_bus" depart="211.73" departLane="best">
        <route edges="-223640817#0 223640817#0 223640817#1 223640817#2 223640817#3 223640817#4 223640817#5 223640817#7 -223640821#2 223640823#0 223640823#1 223640823#2 -484563087#0 -553237960#4 223391216#5 223391216#6-AddedOnRampEdge 223391216#6 -223415924#1 -223415924#0 223404452#1 223404452#2"/>
    </vehicle>
    <vehicle id="bus55" type="bus_bus" depart="215.65" departLane="best">
        <route edges="223415715#5 -223415715#5 -223415715#4 -223415715#3 -223415715#2 -223415715#1 -223415715#0 -223404452#1 -223404452#0 223403444#5 223403444#6 223404328#6 223403162#1 223403162#1-AddedOffRampEdge 223403162#2 523699569#5 523699569#6 523699569#7 523699569#8 523699569#9 523699569#10 -223640815#2 -223640815#1"/>
    </vehicle>
    <vehicle id="bus56" type="bus_bus" depart="219.58" departLane="best">
        <route edges="223640823#1 223640823#2 -484563087#0 -553237960#4 223391216#5 223391216#6-AddedOnRampEdge 223391216#6 -223415924#1 -223415924#0 -223404452#0 223403444#5 223403444#6 -223404328#5 -223404341#5 -223404341#4 -223404341#2"/>
    </vehicle>
    <vehicle id="bus57" type="bus_bus" depart="223.50" departLane="best">
        <route edges="-223391207#1 223403161#0 223404341#1 223404341#2 223404341#4 223404341#5 223404328#5 223404328#6 223403162#1 223403162#1-AddedOffRampEdge 223403162#2 523699569#5 523699569#6 223640821#0 223640821#1 223640821#2 -223640817#7 -223640817#5 -223640817#4 223640826#0 223640826#1 223640814#1 223640814#2"/>
    </vehicle>
    <vehicle id="bus58" type="bus_bus" depart="227.42" departLane="best">
        <route edges="223415724#0 223415724#1 223415724#2 -223415713 -223415715#3 -223415715#2 -223415715#1 -223415715#0 -223404452#1 -223404452#0 223403444#5 223403444#6 223404328#6 223403162#1 223403162#1-AddedOffRampEdge 223403162#2 523699569#5 523699569#6 523699569#7 523699569#8 523699569#9 523699569#10 -223640815#2 -223640815#1 -223640815#0"/>
    </vehicle>
    <vehicle id="bus60" type="bus_bus" depart="235.26" departLane="best">
        <route edges="-223404328#2 223404328#2 223404328#3 223404328#4 223404328#5 223404328#6 223403162#1 223403162#1-AddedOffRampEdge 223403162#2 523699569#5 523699569#6 523699569#7 523699569#8 523699569#9 523699569#10 -223640815#2 -223641160#0 223641160#0"/>
    </vehicle>
    <vehicle id="bus61" type="bus_bus" depart="239.18" departLane="best">
        <route edges="223641160#2 -223640812#2 -223640812#1 223640817#3 223640817#4 223640817#5 223640817#7 -223640821#2 223640823#0 223640823#1 223640823#2 -484563087#0 -553237960#4 223403162#4 484563086#0-AddedOnRampEdge 484563086#0 -223555563#5 223531010#2 -223555674#1"/>
    </vehicle>
    <vehicle id="bus62" type="bus_bus" depart="243.10" departLane="best">
        <route edges="-223640812#3 -223640812#2 -223640812#1 223640817#3 223640817#4 223640817#5 223640817#7 -223640821#2 223640823#0 223640823#1 223640823#2 -484563087#0 -553237960#4 223391216#5 223391216#6-AddedOnRampEdge 223391216#6 223391216#7 -223391207#6 -223391207#5 -223404452#2"/>
    </vehicle>
    <vehicle id="bus63" type="bus_bus" depart="247.02" departLane="best">
        <route edges="-484563087#2 -484563087#1 -484563087#0 -553237960#4 223391216#5 223391216#6-AddedOnRampEdge 223391216#6 -223415924#1 -223415924#0 223404452#1 223415715#0 223415715#1 223415715#2 223415715#3"/>
    </vehicle>
    <vehicle id="bus64" type="bus_bus" depart="250.94" departLane="best">
        <route edges="-223391414#2 223391414#2 223391216#1 223391216#2 223391216#3 223403162#4 484563086#0-AddedOnRampEdge 484563086#0 484563086#1 484563086#3 -223556865 223556865"/>
    </vehicle>
    <vehicle id="bus65" type="bus_bus" depart="254.86" departLane="best">
        <route edges="223640815#2 -223640815#2 -223640815#1 -223640815#0 223640817#1 223640817#2 223640817#3 223640817#4 223640817#5 223640817#7 -223640821#2 223640823#0 223640823#1 223640823#2 -484563087#0 -553237960#4 223391216#5 223391216#6-AddedOnRampEdge 223391216#6 223391216#7 -223391207#6 -223391207#5 -223391207#4 -223391207#3 -223415710"/>
    </vehicle>
    <vehicle id="bus66" type="bus_bus" depart="258.79" departLane="best">
        <route edges="-223555676#1 -223555675#0 523699569#1 523699569#2 523699569#3 523699569#5 523699569#6 223640821#0 223640821#1 223640821#2 -223640817#7 -223640817#5 223640820#0 223640820#1 223640820#2 223640820#3 223640820#4 223640820#5"/>
    </vehicle>
    <vehicle id="bus67" type="bus_bus" depart="262.71" departLane="best">
        <route edges="-641301568#1 -641301568#0 223404328#4 223404328#5 223404328#6 223403162#1 223403162#1-AddedOffRampEdge 223403162#2 523699569#5 523699569#6 223640821#0 223640821#1 223640821#2 -223640817#7 -223640817#5 223640820#0 223640820#1 223640820#2 223640820#3 223640820#4 223640820#5 -223640820#5"/>
    </vehicle>
    <vehicle id="bus68" type="bus_bus" depart="266.63" departLane="best">
        <route edges="223640817#0 223640817#1 223640817#2 -223640812#0 -223640811#0 223640826#1 -223640814#0 223640820#2 223640820#3 223640820#4 -223640805#1 -223640805#0"/>
    </vehicle>
    <vehicle id="bus69" type="bus_bus" depart="270.55" departLane="best">
        <route edges="-223391414#1 223391414#1 223391414#2 223391216#1 223391216#2 223391216#3 223403162#4 484563086#0-AddedOnRampEdge 484563086#0 -223555563#5 -223555563#4 -223555563#3"/>
    </vehicle>
    <vehicle id="bus70" type="bus_bus" depart="274.47" departLane="best">
        <route edges="641301537 -641301537 223503266#1 223503263#1 223503263#2 -223503265#0 223391216#2 223391216#3 523699569#5 523699569#6 223640821#0 223640821#1 223640821#2 -223640817#7 -223640817#5 -223640817#4 -223640817#3"/>
    </vehicle>
    <vehicle id="bus73" type="bus_bus" depart="286.23" departLane="best">
        <route edges="-223641160#7 223641148#0 223641148#1 223641170 223640823#1 223640823#2 -484563087#0 -553237960#4 223391216#5 223391216#6-AddedOnRampEdge 223391216#6 -223415924#1 -223415924#0 -223404452#0 223403444#5 -641301562 -641301560#0 -641301568#0 -223404328#3 -223404328#2 -223404328#1 223404328#1"/>
    </vehicle>
    <vehicle id="bus74" type="bus_bus" depart="290.15" departLane="best">
        <route edges="-223391207#0 223391207#0 223403161#0 223404341#1 223404341#2 223404341#4 223404341#5 223404328#5 223404328#6 223403162#1 223403162#1-AddedOffRampEdge 223403162#2 223403162#4 484563086#0-AddedOnRampEdge 484563086#0 484563086#1 484563086#3 484563086#4"/>
    </vehicle>
    <vehicle id="bus75" type="bus_bus" depart="294.07" departLane="best">
        <route edges="223403162#0 223403162#1 223403162#1-AddedOffRampEdge 223403162#2 223403162#4 484563086#0-AddedOnRampEdge 484563086#0 -223555563#5 -223531010#1 -223555572#4 223555572#4"/>
    </vehicle>
    <vehicle id="bus76" type="bus_bus" depart="298.00" departLane="best">
        <route edges="223555676#0 -223555675#0 523699569#1 523699569#2 523699569#3 -553237960#2 -553237960#1-AddedOnRampEdge -553237960#1 -223503266#2 223503266#2"/>
    </vehicle>
    <vehicle id="bus77" type="bus_bus" depart="301.92" departLane="best">
        <route edges="-223641156#2 223641156#2 223641156#3 -484563087#1 -484563087#0 -553237960#4 223391216#5 223391216#6-AddedOnRampEdge 223391216#6 -223415924#1 -223415924#0 -223404452#0 223403444#5 -641301562 -641301560#0 -641301568#0 -223404328#3 -223404328#2 -223404325#3"/>
    </vehicle>
    <vehicle id="bus78" type="bus_bus" depart="305.84" departLane="best">
        <route edges="223503263#1 223503263#2 -223503265#0 223391216#2 223391216#3 523699569#5 523699569#6 223640821#0 223640821#1 223640821#2 -223640817#7 -223640817#5 223640820#0 223640820#1 223640820#2 -223640824#1"/>
    </vehicle>
    <vehicle id="bus79" type="bus_bus" depart="309.76" departLane="best">
        <route edges="-223640821#1 223640821#1 223640823#0 223640823#1 223640823#2 -484563087#0 -553237960#4 -553237960#2 -553237960#1-AddedOnRampEdge -553237960#1 -553237960#0"/>
    </vehicle>
    <vehicle id="bus80" type="bus_bus" depart="313.68" departLane="best">
        <route edges="-484563087#2 -223641156#3 -223641156#2 -223641164 223641148#1 223641148#2 223641148#3 223641148#4 -223640820#0"/>
    </vehicle>
    <vehicle id="bus81" type="bus_bus" depart="317.60" departLane="best">
        <route edges="-223640820#3 -223640820#2 -223640820#1 -223640820#0 223640817#5 223640817#7 -223640821#2 223640823#0 223640823#1 223640823#2 -484563087#0 -553237960#4 223391216#5 223391216#6-AddedOnRampEdge 223391216#6 -223415924#1 223403444#1"/>
    </vehicle>
    <vehicle id="bus82" type="bus_bus" depart="321.52" departLane="best">
        <route edges="-223391207#0 223391207#0 223403161#0 223404341#1 223404341#2 223404341#4 223404341#5 223404328#5 223404328#6 223403162#1 223403162#1-AddedOffRampEdge 223403162#2 523699569#5 523699569#6 223640821#0 223640821#1 223640821#2 -223640817#7 223641158#0 223641158#1 -223640819#0"/>
    </vehicle>
    <vehicle id="bus83" type="bus_bus" depart="325.44" departLane="best">
        <route edges="223391207#5 -223391207#5 -223404452#2 -223404452#1 -223404452#0 223403444#5 223403444#6 223404328#6 223403162#1 223403162#1-AddedOffRampEdge 223403162#2 523699569#5 523699569#6 223640821#0 223640821#1 223640823#0 -223641170 -223641148#1 223641164 223641156#2 223641160#8"/>
    </vehicle>
    <vehicle id="bus84" type="bus_bus" depart="329.36" departLane="best">
        <route edges="223640817#0 223640817#1 223640817#2 223640817#3 223640817#4 223640817#5 223640817#7 -223640821#2 223640823#0 223640823#1 223640823#2 -484563087#0 -553237960#4 223391216#5 223391216#6-AddedOnRampEdge 223391216#6 -223415924#1 -223415924#0 -223404452#0 223403444#5 223403444#6 -223404328#5 -223404341#5 -223404341#4 -223404341#2 -223506806#2 -223506806#1 -223506806#0"/>
    </vehicle>
    <vehicle id="bus86" type="bus_bus" depart="337.21" departLane="best">
        <route edges="223415715#4 -223415715#4 -223415715#3 -223415715#2 -223415715#1 -223415715#0 -223404452#1 -223404452#0 223403444#5 223403444#6 223404328#6 223403162#1 223403162#1-AddedOffRampEdge 223403162#2 523699569#5 523699569#6 523699569#7 523699569#8 523699569#9 223640825#0 223640825#1 223640825#2 -223640825#2"/>
    </vehicle>
    <vehicle id="bus87" type="bus_bus" depart="341.13" departLane="best">
        <route edges="223503265#2 -223503265#2 -223503265#1 -223503265#0 223391216#2 223391216#3 223403162#4 484563086#0-AddedOnRampEdge 484563086#0 484563086#1 484563086#3 -223556865"/>
    </vehicle>
    <vehicle id="bus89" type="bus_bus" depart="348.97" departLane="best">
        <route edges="-223640812#1 223640817#3 223640817#4 223640817#5 223640817#7 -223640821#2 223640823#0 223640823#1 223640823#2 -484563087#0 -553237960#4 223391216#5 223391216#6-AddedOnRampEdge 223391216#6 223391216#7 -223391207#6 223391207#6"/>
    </vehicle>
    <vehicle id="bus90" type="bus_bus" depart="352.89" departLane="best">
        <route edges="223640824#0 223640824#1 -223640820#2 -223640820#1 -223640820#0 223640817#5 223640817#7 -223640821#2 223640823#0 223640823#1 223640823#2 -484563087#0 -553237960#4 223391216#5 223391216#6-AddedOnRampEdge 223391216#6 -223415924#1 -223415924#0 -223404452#0 223403444#5 -641301562 -641301560#0 -641301568#0 -223404328#3 -223404328#2 -223404328#1"/>
    </vehicle>
    <vehicle id="bus91" type="bus_bus" depart="356.81" departLane="best">