<?xml version="1.0" encoding="UTF-8"?>

<!-- generated on 03/17/19 20:46:21 by Eclipse SUMO polyconvert Version 1.0.1
<configuration xmlns:xsi="http://www.w3.org/2001/XMLSchema-instance" xsi:noNamespaceSchemaLocation="http://sumo.dlr.de/xsd/polyconvertConfiguration.xsd">

    <input>
        <net-file value="D:\munkz\fyp\Simulation\SUMO\tools\2019-03-17-20-46-06\osm.net.xml"/>
        <osm-files value="D:\munkz\fyp\Simulation\SUMO\tools\2019-03-17-20-46-06\osm_bbox.osm.xml"/>
        <osm.keep-full-type value="true"/>
        <type-file value="D:\munkz\fyp\Simulation\SUMO\data\typemap\osmPolyconvert.typ.xml"/>
    </input>

    <output>
        <output-file value="D:\munkz\fyp\Simulation\SUMO\tools\2019-03-17-20-46-06\osm.poly.xml"/>
    </output>

    <processing>
        <poi-layer-offset value="5"/>
    </processing>

    <report>
        <verbose value="true"/>
    </report>

</configuration>
-->

<additional xmlns:xsi="http://www.w3.org/2001/XMLSchema-instance" xsi:noNamespaceSchemaLocation="http://sumo.dlr.de/xsd/additional_file.xsd">
    <location netOffset="-309348.94,-2755473.36" convBoundary="-6947.39,-3830.69,5835.49,9865.84" origBoundary="67.043781,24.867535,67.169224,24.991862" projParameter="+proj=utm +zone=42 +ellps=WGS84 +datum=WGS84 +units=m +no_defs"/>

    <poly id="223640827" type="leisure.park" color="207,245,201" fill="1" layer="-2.00" shape="1812.358490,929.008806 1874.526046,980.456385 1916.118609,926.507778 1879.663445,896.276675 1812.358490,929.008806"/>
    <poly id="223641168" type="leisure.park" color="207,245,201" fill="1" layer="-2.00" shape="1767.151586,1326.877917 1819.634809,1379.510848 1839.938924,1357.949525 1788.209661,1305.040259 1767.151586,1326.877917"/>
    <poly id="382441620" type="leisure.park" color="207,245,201" fill="1" layer="-2.00" shape="1297.920462,1140.693571 1325.203996,1162.973283 1228.874366,1286.532990 1199.723624,1265.121216 1297.920462,1140.693571"/>
    <poly id="382441626" type="building.school" color="255,230,230" fill="1" layer="-1.00" shape="1446.541957,1345.195844 1479.720751,1309.220444 1420.160311,1254.891478 1386.981518,1290.867020 1446.541957,1345.195844"/>
    <poly id="382443372" type="building.residential" color="255,230,230" fill="1" layer="-1.00" shape="1234.078361,1386.922791 1267.459311,1345.138803 1262.452889,1330.107600 1246.296249,1316.825535 1230.610244,1309.098498 1196.879958,1354.853568 1204.280483,1369.851719 1234.078361,1386.922791"/>
    <poly id="382443373" type="leisure.park" color="207,245,201" fill="1" layer="-2.00" shape="1084.009147,1470.023541 1224.200156,1292.657518 1196.151704,1271.319175 1056.033948,1448.861738 1084.009147,1470.023541"/>
    <poly id="382443375" type="leisure.park" color="207,245,201" fill="1" layer="-2.00" shape="1622.787816,1182.504323 1644.890228,1163.133694 1537.115745,1053.764384 1517.801329,1073.096782 1622.787816,1182.504323"/>
    <poly id="382443376" type="building.yes" color="255,230,230" fill="1" layer="-1.00" shape="1508.092185,1020.307694 1461.121048,974.867448 1426.836418,1009.107625 1423.470086,1025.838499 1419.192619,1054.901419 1422.917197,1063.436069 1432.920928,1073.789729 1443.852592,1084.762094 1508.092185,1020.307694"/>
    <poly id="382443376#1" type="shop.mall" color="237,199,255" fill="1" layer="-1.00" shape="1508.092185,1020.307694 1461.121048,974.867448 1426.836418,1009.107625 1423.470086,1025.838499 1419.192619,1054.901419 1422.917197,1063.436069 1432.920928,1073.789729 1443.852592,1084.762094 1508.092185,1020.307694"/>
    <poly id="382446343" type="leisure.park" color="207,245,201" fill="1" layer="-2.00" shape="1562.088112,932.430365 1550.185231,913.295223 1688.504347,847.954888 1692.529433,858.512860 1562.088112,932.430365"/>
    <poly id="382446348" type="building.commercial" color="255,230,230" fill="1" layer="-1.00" shape="1359.212433,992.202932 1381.946210,968.059345 1315.304468,944.737833 1293.213096,964.906508 1317.858061,989.250010 1359.212433,992.202932"/>
    <poly id="382446348#1" type="shop.mall" color="237,199,255" fill="1" layer="-1.00" shape="1359.212433,992.202932 1381.946210,968.059345 1315.304468,944.737833 1293.213096,964.906508 1317.858061,989.250010 1359.212433,992.202932"/>
    <poly id="382609230" type="building.residential" color="255,230,230" fill="1" layer="-1.00" shape="1574.046182,1364.278429 1593.237223,1347.019487 1592.734383,1342.052088 1585.738345,1336.586926 1575.679329,1333.202422 1561.120920,1345.711310 1561.207563,1352.002803 1567.626876,1358.140615 1574.046182,1364.278429"/>
    <poly id="382609231" type="building.residential" color="255,230,230" fill="1" layer="-1.00" shape="1588.444381,1373.153596 1609.528651,1353.242963 1598.920417,1342.254958 1577.555404,1363.055766 1588.444381,1373.153596"/>
    <poly id="382609232" type="building.residential" color="255,230,230" fill="1" layer="-1.00" shape="1598.026226,1384.443770 1619.532804,1363.652123 1610.269983,1354.251994 1589.199933,1374.461554 1598.026226,1384.443770"/>
    <poly id="382609233" type="building.residential" color="255,230,230" fill="1" layer="-1.00" shape="1556.815168,1364.659745 1564.070179,1356.649659 1557.954975,1350.585212 1559.973257,1347.477545 1556.550960,1345.475122 1545.649238,1355.729014 1556.815168,1364.659745"/>
    <poly id="382609763" type="building.school" color="255,230,230" fill="1" layer="-1.00" shape="1506.873757,1359.475928 1515.468480,1349.708007 1499.982578,1334.488735 1490.414760,1344.026340 1506.873757,1359.475928"/>
    <poly id="435137045" type="amenity.hospital" color="237,199,199" fill="1" layer="-1.00" shape="790.023983,1440.085128 701.914422,1374.465840 822.272917,1232.478251 909.220564,1301.737119 790.023983,1440.085128"/>
    <poly id="435137046" type="building.yes" color="255,230,230" fill="1" layer="-1.00" shape="986.830427,1440.378473 1028.540410,1391.621063 913.444820,1301.080495 870.564230,1352.856772 986.830427,1440.378473"/>
    <poly id="480577926" type="building.commercial" color="255,230,230" fill="1" layer="-1.00" shape="1124.896363,992.709433 1155.312665,947.631472 1114.194403,915.682946 1111.931610,915.714176 1110.293573,917.088385 1109.411321,919.050412 1110.038065,920.537386 1111.545367,920.671684 1104.093793,970.074728 1104.446380,973.659359 1105.857953,977.838701 1107.088952,979.915584 1124.896363,992.709433"/>
    <poly id="480577926#1" type="shop.mall" color="237,199,255" fill="1" layer="-1.00" shape="1124.896363,992.709433 1155.312665,947.631472 1114.194403,915.682946 1111.931610,915.714176 1110.293573,917.088385 1109.411321,919.050412 1110.038065,920.537386 1111.545367,920.671684 1104.093793,970.074728 1104.446380,973.659359 1105.857953,977.838701 1107.088952,979.915584 1124.896363,992.709433"/>
    <poly id="480577927" type="building.commercial" color="255,230,230" fill="1" layer="-1.00" shape="1121.773382,975.802131 1137.863573,949.822110 1122.038638,938.651606 1117.921302,973.417983 1121.773382,975.802131"/>
    <poly id="480582048" type="building.apartments" color="255,230,230" fill="1" layer="-1.00" shape="1230.284606,1061.372371 1235.666078,1065.496964 1252.489393,1061.165805 1253.875647,1059.850479 1255.055744,1058.238872 1255.159852,1051.135997 1254.732412,1049.446853 1255.427764,1048.584203 1257.040954,1049.071574 1264.360241,1047.918153 1265.059108,1047.310266 1268.533611,1030.378429 1267.911339,1028.481477 1266.675767,1026.803478 1262.320956,1023.861212 1260.205582,1023.591261 1258.112207,1024.916339 1245.905784,1028.485850 1244.406135,1028.905367 1242.826248,1030.832692 1242.372229,1033.076849 1241.901485,1037.038434 1242.723197,1038.744297 1241.840344,1039.930815 1240.120770,1039.788353 1234.528693,1041.638077 1233.733412,1041.848463 1232.749373,1043.756492 1232.436691,1049.654668 1231.871998,1052.664782 1230.284606,1061.372371"/>
    <poly id="480582049" type="building.apartments" color="255,230,230" fill="1" layer="-1.00" shape="1271.728301,1094.258396 1277.109747,1098.383003 1293.933030,1094.051893 1295.319285,1092.736571 1296.509484,1091.124828 1296.603663,1084.033171 1296.186178,1082.332810 1296.871582,1081.481379 1298.484613,1081.957677 1305.803884,1080.804277 1306.502750,1080.196392 1309.987394,1063.264429 1309.355026,1061.367614 1308.124066,1059.290716 1303.457498,1056.452445 1301.155698,1056.583892 1299.566185,1057.813386 1287.349529,1061.371924 1285.849884,1061.791437 1284.269995,1063.718757 1283.826226,1065.973850 1283.355319,1069.924357 1284.177024,1071.630222 1283.294170,1072.816737 1281.574601,1072.674270 1275.982533,1074.523977 1275.177152,1074.734501 1274.203212,1076.642388 1273.880413,1082.540701 1273.315713,1085.550813 1271.728301,1094.258396"/>
    <poly id="480582050" type="building.apartments" color="255,230,230" fill="1" layer="-1.00" shape="1247.355344,1072.049417 1247.450213,1073.067348 1261.369635,1085.283497 1263.590140,1085.851122 1270.299052,1083.664724 1271.477621,1081.942353 1273.295066,1067.935985 1274.776686,1066.209434 1264.820196,1058.558428 1263.040874,1060.676840 1252.045916,1064.174246 1249.936201,1064.314131 1249.362203,1065.917379 1247.355344,1072.049417"/>
    <poly id="480582051" type="building.apartments" color="255,230,230" fill="1" layer="-1.00" shape="1295.907741,1046.020718 1295.802774,1045.002926 1281.773910,1032.910116 1279.553703,1032.364642 1272.865731,1034.606137 1271.697259,1036.328369 1270.011588,1050.366155 1268.540069,1052.092567 1278.556101,1059.665203 1280.325018,1057.524780 1291.288460,1053.939203 1293.397872,1053.777171 1293.951518,1052.163127 1295.907741,1046.020718"/>
    <poly id="484514559" type="building.apartments" color="255,230,230" fill="1" layer="-1.00" shape="1737.731610,892.910618 1763.126874,881.504806 1755.405937,864.483404 1747.674727,847.451068 1758.308826,842.673922 1773.917352,877.080036 1799.704355,865.502728 1778.531680,818.820414 1716.715002,846.569676 1737.731610,892.910618"/>
    <poly id="484514560" type="building.apartments" color="255,230,230" fill="1" layer="-1.00" shape="1750.085730,922.099115 1739.174821,897.200362 1800.783227,870.484364 1811.704292,895.394096 1750.085730,922.099115"/>
    <poly id="484514561" type="building.apartments" color="255,230,230" fill="1" layer="-1.00" shape="1757.536599,940.054835 1751.345885,926.302748 1811.829836,899.380684 1818.020649,913.143870 1757.536599,940.054835"/>
    <poly id="484514562" type="building.apartments" color="255,230,230" fill="1" layer="-1.00" shape="1846.595448,878.728456 1851.077165,888.704097 1865.457741,882.313439 1861.632392,873.780074 1880.231061,865.536707 1887.777520,882.372229 1834.070916,906.209521 1825.868038,887.931747 1846.595448,878.728456"/>
    <poly id="484514563" type="building.apartments" color="255,230,230" fill="1" layer="-1.00" shape="1824.678007,883.682830 1815.223143,862.530747 1847.369599,848.318003 1870.809033,837.947448 1880.274229,859.121578 1867.540108,864.747315 1863.453533,855.586058 1834.109023,868.563747 1838.195463,877.713920 1824.678007,883.682830"/>
    <poly id="484514564" type="building.apartments" color="255,230,230" fill="1" layer="-1.00" shape="1888.475428,861.844984 1890.895463,867.373201 1893.667562,866.171841 1899.019357,878.439895 1950.163555,856.344193 1945.198046,844.979264 1948.191327,843.697326 1945.374813,837.255022 1888.475428,861.844984"/>
    <poly id="484514565" type="building.apartments" color="255,230,230" fill="1" layer="-1.00" shape="1887.528269,856.152500 1944.956470,831.810078 1941.209083,823.065129 1938.376361,824.267311 1933.251391,812.328486 1881.086918,834.449342 1886.326854,846.663536 1883.906030,847.693888 1887.528269,856.152500"/>
    <poly id="484567104" type="building.yes" color="255,230,230" fill="1" layer="-1.00" shape="1338.234779,911.396161 1342.060031,909.637313 1341.237257,907.853908 1337.321700,909.658317 1334.166350,902.844111 1347.218778,896.870033 1350.676233,904.344798 1346.740470,906.149482 1347.781946,908.406255 1351.255776,906.807355 1354.046868,912.851077 1341.556639,918.562590 1338.234779,911.396161"/>
    <poly id="484567105" type="building.yes" color="255,230,230" fill="1" layer="-1.00" shape="1329.111468,889.431041 1332.946827,887.672051 1332.124204,885.899724 1328.198386,887.693197 1325.043028,880.878993 1338.095474,874.904908 1341.552939,882.379671 1337.617170,884.184357 1338.658649,886.441129 1342.132637,884.853304 1344.923583,890.885948 1332.433337,896.597468 1329.111468,889.431041"/>
    <poly id="484567106" type="building.yes" color="255,230,230" fill="1" layer="-1.00" shape="1315.214774,925.041172 1301.995535,891.067853 1308.859916,888.425113 1311.468106,895.124992 1314.191787,894.079281 1311.374079,886.839434 1318.077752,884.265387 1331.118660,917.764794 1325.035332,920.629408 1322.950259,915.229600 1321.211514,915.896134 1323.516206,921.835770 1315.214774,925.041172"/>
    <poly id="484567108" type="building.yes" color="255,230,230" fill="1" layer="-1.00" shape="1309.106845,896.808271 1310.506753,900.145811 1318.754790,896.730649 1317.364985,893.392969 1309.106845,896.808271"/>
    <poly id="484567109" type="building.yes" color="255,230,230" fill="1" layer="-1.00" shape="1321.741150,846.580602 1323.141060,849.918143 1331.388977,846.491914 1329.978968,843.154512 1321.741150,846.580602"/>
    <poly id="484567110" type="building.yes" color="255,230,230" fill="1" layer="-1.00" shape="1282.117128,826.996953 1268.887783,793.034874 1275.752210,790.392121 1278.360431,797.091995 1281.084130,796.046278 1278.276491,788.806298 1284.980209,786.232237 1298.021271,819.731620 1291.937903,822.596246 1289.852805,817.196442 1288.103946,817.863119 1290.418768,823.802611 1282.117128,826.996953"/>
    <poly id="484567111" type="building.yes" color="255,230,230" fill="1" layer="-1.00" shape="1283.633966,815.365578 1285.023633,818.692178 1293.281817,815.276865 1291.882050,811.950403 1283.633966,815.365578"/>
    <poly id="484567112" type="building.yes" color="255,230,230" fill="1" layer="-1.00" shape="1275.592944,798.625778 1276.982614,801.952378 1285.240807,798.537060 1283.841037,795.210599 1275.592944,798.625778"/>
    <poly id="484567113" type="building.yes" color="255,230,230" fill="1" layer="-1.00" shape="1290.152488,771.514903 1279.751301,744.083478 1286.867997,741.415097 1287.748474,743.718402 1288.945557,743.336300 1288.033400,740.933724 1294.461491,738.152976 1304.778629,765.352916 1299.008873,767.515256 1297.729868,764.153892 1295.458149,765.005036 1296.957540,768.961610 1290.152488,771.514903"/>
    <poly id="484567114" type="building.yes" color="255,230,230" fill="1" layer="-1.00" shape="1290.719069,762.777090 1292.118993,766.114629 1300.367109,762.699461 1298.977289,759.361782 1290.719069,762.777090"/>
    <poly id="484567115" type="building.yes" color="255,230,230" fill="1" layer="-1.00" shape="1284.297101,745.483185 1285.697028,748.820723 1293.945154,745.405552 1292.545229,742.068013 1284.297101,745.483185"/>
    <poly id="484567116" type="building.yes" color="255,230,230" fill="1" layer="-1.00" shape="1301.172028,802.759953 1290.760780,775.328661 1297.887409,772.649069 1298.757933,774.963590 1299.954861,774.570412 1299.042861,772.178912 1305.470938,769.398168 1315.788036,796.598115 1310.018292,798.760451 1308.739292,795.399087 1306.467578,796.250229 1307.966964,800.206804 1301.172028,802.759953"/>
    <poly id="484567117" type="building.yes" color="255,230,230" fill="1" layer="-1.00" shape="1302.170548,793.838927 1303.560365,797.176605 1311.818566,793.761304 1310.418649,790.423764 1302.170548,793.838927"/>
    <poly id="484567118" type="building.yes" color="255,230,230" fill="1" layer="-1.00" shape="1295.518707,776.725446 1296.908527,780.063124 1305.166737,776.647820 1303.766817,773.310280 1295.518707,776.725446"/>
    <poly id="484567119" type="building.yes" color="255,230,230" fill="1" layer="-1.00" shape="1314.153098,839.240340 1300.933945,805.278097 1307.798371,802.635359 1310.406574,809.335238 1313.130272,808.289528 1310.312551,801.049681 1317.026369,798.475497 1330.067341,831.974905 1323.973872,834.839656 1321.898890,829.439708 1320.150032,830.106382 1322.464838,836.045879 1314.153098,839.240340"/>
    <poly id="484567120" type="building.yes" color="255,230,230" fill="1" layer="-1.00" shape="1307.628984,810.869155 1309.018798,814.206834 1317.276990,810.791535 1315.877076,807.453994 1307.628984,810.869155"/>
    <poly id="484567121" type="building.yes" color="255,230,230" fill="1" layer="-1.00" shape="1315.151691,828.125735 1316.551603,831.463275 1324.799684,828.048119 1323.409875,824.710439 1315.151691,828.125735"/>
    <poly id="484567122" type="building.yes" color="255,230,230" fill="1" layer="-1.00" shape="1328.222374,874.775125 1314.993028,840.801933 1321.867540,838.159062 1324.475730,844.858944 1327.199422,843.813236 1324.381714,836.573387 1331.085414,833.999348 1344.126326,867.498766 1338.042972,870.363373 1335.957899,864.963562 1334.209045,865.630234 1336.523840,871.569733 1328.222374,874.775125"/>
    <poly id="484567123" type="building.yes" color="255,230,230" fill="1" layer="-1.00" shape="1328.757665,863.766615 1330.167520,867.092941 1338.405327,863.666855 1337.005422,860.329313 1328.757665,863.766615"/>
    <poly id="484567124" type="building.yes" color="255,230,230" fill="1" layer="-1.00" shape="1282.792447,831.275091 1302.158606,883.842303 1309.839250,881.044287 1307.529811,874.761279 1310.565888,873.655867 1312.675755,879.387693 1318.476533,877.280320 1299.404125,825.495626 1293.884955,827.510492 1296.152472,833.683290 1292.744300,834.915701 1290.382659,828.511549 1282.792447,831.275091"/>
    <poly id="484567125" type="building.yes" color="255,230,230" fill="1" layer="-1.00" shape="1290.256768,836.235127 1291.656686,839.572665 1299.904757,836.157494 1298.514942,832.819816 1290.256768,836.235127"/>
    <poly id="484567126" type="building.yes" color="255,230,230" fill="1" layer="-1.00" shape="1296.069185,854.756092 1297.469100,858.093631 1305.717160,854.678463 1304.327348,851.340784 1296.069185,854.756092"/>
    <poly id="484567127" type="building.yes" color="255,230,230" fill="1" layer="-1.00" shape="1303.344841,872.414905 1304.734651,875.752584 1312.992803,872.337280 1311.592893,868.999740 1303.344841,872.414905"/>
    <poly id="484567128" type="building.yes" color="255,230,230" fill="1" layer="-1.00" shape="1252.420647,745.557146 1268.306237,790.428324 1275.471734,787.637396 1273.162268,781.354393 1276.198364,780.248974 1278.308257,785.980796 1284.108919,783.862334 1268.706434,738.851536 1261.777225,741.927253 1263.440050,747.476900 1261.191436,748.538226 1259.320921,742.581532 1252.420647,745.557146"/>
    <poly id="484567129" type="building.yes" color="255,230,230" fill="1" layer="-1.00" shape="1269.219556,778.993607 1270.609382,782.331283 1278.867586,778.915962 1277.467659,775.578425 1269.219556,778.993607"/>
    <poly id="484567130" type="building.yes" color="255,230,230" fill="1" layer="-1.00" shape="1264.084259,764.152514 1265.474087,767.490189 1273.732299,764.074866 1272.332371,760.737329 1264.084259,764.152514"/>
    <poly id="484567131" type="building.yes" color="255,230,230" fill="1" layer="-1.00" shape="1258.755469,749.934496 1260.145300,753.272171 1268.403520,749.856845 1267.003588,746.519309 1258.755469,749.934496"/>
    <poly id="484567132" type="building.yes" color="255,230,230" fill="1" layer="-1.00" shape="1249.579275,728.546236 1253.800336,728.377239 1253.722943,726.428458 1249.410811,726.587632 1249.125563,719.091297 1263.475620,718.549969 1263.791145,726.777079 1259.458809,726.936529 1259.553636,729.416847 1263.370927,729.275578 1263.624203,735.919295 1249.879971,736.430112 1249.579275,728.546236"/>
    <poly id="484567133" type="building.yes" color="255,230,230" fill="1" layer="-1.00" shape="1265.355215,728.096032 1269.566786,727.971485 1269.509599,726.022425 1265.196856,726.137289 1264.982482,718.651056 1279.344474,718.242523 1279.579022,726.459671 1275.246228,726.585887 1275.310746,729.066622 1279.138597,728.958447 1279.331254,735.603000 1265.585342,735.991959 1265.355215,728.096032"/>
    <poly id="484567134" type="building.yes" color="255,230,230" fill="1" layer="-1.00" shape="1281.212429,727.677961 1285.434101,727.553280 1285.376764,725.593144 1281.054072,725.719218 1280.839554,718.221909 1295.201545,717.813393 1295.436236,726.041617 1291.103443,726.167827 1291.167958,728.648562 1294.995809,728.540392 1295.188305,735.173868 1281.442394,735.562812 1281.212429,727.677961"/>
    <poly id="484567135" type="building.yes" color="255,230,230" fill="1" layer="-1.00" shape="1297.127352,727.048618 1301.349024,726.923942 1301.291689,724.963806 1296.979099,725.089736 1296.754488,717.592566 1311.116479,717.184067 1311.351160,725.412291 1307.018367,725.538496 1307.092981,728.019092 1310.910577,727.899989 1311.103219,734.544541 1297.357308,734.933469 1297.127352,727.048618"/>
    <poly id="484567136" type="building.yes" color="255,230,230" fill="1" layer="-1.00" shape="1313.449557,726.646331 1317.661127,726.521799 1317.613896,724.561524 1313.291204,724.687588 1313.076704,717.190279 1327.438695,716.781797 1327.673367,725.010021 1323.340573,725.136221 1323.405082,727.616956 1327.232933,727.508795 1327.425414,734.142270 1313.679504,734.531181 1313.449557,726.646331"/>
    <poly id="484567137" type="building.yes" color="255,230,230" fill="1" layer="-1.00" shape="1286.626624,731.237117 1290.252437,731.131731 1290.008732,722.249989 1286.372815,722.355514 1286.626624,731.237117"/>
    <poly id="484567138" type="building.yes" color="255,230,230" fill="1" layer="-1.00" shape="1270.778732,732.330853 1274.414647,732.225324 1274.160830,723.343720 1270.534862,723.438034 1270.778732,732.330853"/>
    <poly id="484567139" type="building.yes" color="255,230,230" fill="1" layer="-1.00" shape="1254.974782,732.947618 1258.610850,732.853161 1258.357022,723.971557 1254.731055,724.065875 1254.974782,732.947618"/>
    <poly id="484567140" type="building.yes" color="255,230,230" fill="1" layer="-1.00" shape="1302.522232,731.405711 1306.158147,731.300190 1305.914452,722.418449 1302.278536,722.523969 1302.522232,731.405711"/>
    <poly id="484567141" type="building.yes" color="255,230,230" fill="1" layer="-1.00" shape="1318.790411,730.749365 1322.426325,730.643849 1322.172539,721.762247 1318.546572,721.856547 1318.790411,730.749365"/>
    <poly id="484567142" type="building.yes" color="255,230,230" fill="1" layer="-1.00" shape="1347.015713,756.062822 1317.559724,757.277612 1317.243290,749.715236 1319.727434,749.614518 1319.730383,748.362586 1317.155475,748.475634 1316.524180,741.526926 1345.727655,740.315618 1345.983970,746.449673 1342.368875,746.599211 1342.472872,749.012929 1346.714130,748.843681 1347.015713,756.062822"/>
    <poly id="484567143" type="building.yes" color="255,230,230" fill="1" layer="-1.00" shape="1324.533954,744.274806 1320.898960,744.446782 1321.334581,753.325877 1324.959471,753.154041 1324.533954,744.274806"/>
    <poly id="484567144" type="building.yes" color="255,230,230" fill="1" layer="-1.00" shape="1340.677229,743.354319 1337.052489,743.537227 1337.477845,752.405385 1341.102735,752.233553 1340.677229,743.354319"/>
    <poly id="484567145" type="building.yes" color="255,230,230" fill="1" layer="-1.00" shape="1363.084974,731.446091 1333.611655,732.140382 1333.426556,724.576197 1335.911315,724.519788 1335.944571,723.267439 1333.358946,723.336317 1332.858831,716.374722 1362.079789,715.694988 1362.224822,721.819497 1358.608804,721.902571 1358.662442,724.328062 1362.914725,724.225140 1363.084974,731.446091"/>
    <poly id="484567146" type="building.yes" color="255,230,230" fill="1" layer="-1.00" shape="1358.283205,718.805030 1354.658306,718.976856 1355.083803,727.856091 1358.708699,727.684264 1358.283205,718.805030"/>
    <poly id="484567147" type="building.yes" color="255,230,230" fill="1" layer="-1.00" shape="1339.517558,719.329572 1335.882557,719.501543 1336.318167,728.380639 1339.943064,728.208807 1339.517558,719.329572"/>
    <poly id="484567148" type="building.yes" color="255,230,230" fill="1" layer="-1.00" shape="1351.859237,880.952477 1383.805781,927.042606 1390.541967,922.429669 1386.727691,916.920740 1389.390024,915.089302 1392.874328,920.115318 1397.958997,916.633013 1366.496883,871.234133 1361.652356,874.546959 1365.394567,879.957168 1362.411872,882.003520 1358.515387,876.396022 1351.859237,880.952477"/>
    <poly id="484584642" type="building.yes" color="255,230,230" fill="1" layer="-1.00" shape="1344.757107,812.107753 1353.949100,778.213241 1361.607417,781.121086 1359.882544,787.193818 1362.399555,788.012184 1364.049111,782.339323 1370.621947,784.929773 1362.037912,817.486451 1355.566693,815.670113 1357.397488,809.219245 1354.195261,807.800997 1352.208944,814.697156 1344.757107,812.107753"/>
    <poly id="484584643" type="building.yes" color="255,230,230" fill="1" layer="-1.00" shape="1352.559070,803.447472 1351.302347,806.832712 1359.690424,809.907755 1360.946995,806.511439 1352.559070,803.447472"/>
    <poly id="484584644" type="building.yes" color="255,230,230" fill="1" layer="-1.00" shape="1356.628403,786.407769 1355.361576,789.793148 1363.749662,792.868194 1365.006236,789.471878 1356.628403,786.407769"/>
    <poly id="484584645" type="building.yes" color="255,230,230" fill="1" layer="-1.00" shape="1369.154320,822.130042 1378.356464,788.235409 1386.014770,791.143267 1384.279786,797.216135 1386.806896,798.034366 1388.446358,792.361648 1395.029285,794.951970 1386.435100,827.508769 1379.963890,825.692419 1381.794848,819.252632 1378.602575,817.823163 1376.606299,824.730534 1369.154320,822.130042"/>
    <poly id="484584646" type="building.yes" color="255,230,230" fill="1" layer="-1.00" shape="1377.268378,813.387922 1376.011804,816.784237 1384.389766,819.859433 1385.646189,816.452043 1377.268378,813.387922"/>
    <poly id="484584647" type="building.yes" color="255,230,230" fill="1" layer="-1.00" shape="1381.246058,796.294099 1379.989481,799.690413 1388.377401,802.754396 1389.623878,799.358222 1381.246058,796.294099"/>
    <poly id="484584649" type="building.yes" color="255,230,230" fill="1" layer="-1.00" shape="1359.364390,858.824614 1368.556224,824.919033 1376.214512,827.826884 1374.489641,833.899614 1377.006795,834.729060 1378.656197,829.045124 1385.229008,831.635579 1376.644978,864.192249 1370.173783,862.375906 1372.004730,855.936116 1368.802362,854.506789 1366.806098,861.414162 1359.364390,858.824614"/>
    <poly id="484584651" type="building.yes" color="255,230,230" fill="1" layer="-1.00" shape="1367.653840,849.614764 1366.255083,852.957647 1374.506436,856.378020 1375.895092,853.035278 1367.653840,849.614764"/>
    <poly id="484584653" type="building.yes" color="255,230,230" fill="1" layer="-1.00" shape="1378.295519,839.530523 1379.481074,836.113030 1371.025053,833.238329 1369.849755,836.666760 1378.295519,839.530523"/>
    <poly id="484584656" type="building.yes" color="255,230,230" fill="1" layer="-1.00" shape="1379.077591,786.308860 1388.269538,752.403302 1395.928013,755.322243 1394.203120,761.394969 1396.720134,762.213342 1398.369707,756.540486 1404.942547,759.130953 1396.358411,791.687602 1389.887186,789.871247 1391.718002,783.420385 1388.515773,782.002129 1386.529434,788.898282 1379.077591,786.308860"/>
    <poly id="484584658" type="building.yes" color="255,230,230" fill="1" layer="-1.00" shape="1387.049948,777.546545 1385.793215,780.931781 1394.181297,784.006846 1395.427778,780.610673 1387.049948,777.546545"/>
    <poly id="484584660" type="building.yes" color="255,230,230" fill="1" layer="-1.00" shape="1390.874142,760.310819 1389.617558,763.707131 1398.005497,766.771122 1399.262083,763.374810 1390.874142,760.310819"/>
    <poly id="484584662" type="building.yes" color="255,230,230" fill="1" layer="-1.00" shape="1354.876613,774.400470 1364.068664,740.505969 1371.726999,743.413821 1370.002115,749.486551 1372.519132,750.304919 1374.168698,744.632061 1380.741549,747.222517 1372.157459,779.779183 1365.686224,777.962839 1367.517031,771.511974 1364.314796,770.093723 1362.328620,777.000956 1354.876613,774.400470"/>
    <poly id="484584665" type="building.yes" color="255,230,230" fill="1" layer="-1.00" shape="1362.767384,765.583872 1361.510808,768.980187 1369.898904,772.055237 1371.145227,768.647985 1362.767384,765.583872"/>
    <poly id="484584667" type="building.yes" color="255,230,230" fill="1" layer="-1.00" shape="1367.090666,748.640383 1365.833934,752.025621 1374.222039,755.100674 1375.468518,751.704500 1367.090666,748.640383"/>
    <poly id="484584669" type="building.yes" color="255,230,230" fill="1" layer="-1.00" shape="1323.010344,941.573877 1368.356742,957.057181 1370.240648,950.062726 1365.596376,948.110420 1366.341078,945.696082 1370.760060,947.429920 1372.608600,940.801548 1328.326550,924.107056 1326.132408,931.316290 1330.360383,933.119221 1329.618740,935.755093 1325.395194,934.273383 1323.010344,941.573877"/>
    <poly id="484584672" type="building.yes" color="255,230,230" fill="1" layer="-1.00" shape="1316.675134,913.709704 1318.075040,917.047244 1326.323067,913.632086 1324.933265,910.294405 1316.675134,913.709704"/>
    <poly id="484584674" type="building.yes" color="255,230,230" fill="1" layer="-1.00" shape="1334.807966,931.063745 1331.318310,930.048299 1328.798880,938.580381 1332.288534,939.595826 1334.807966,931.063745"/>
    <poly id="484584676" type="building.yes" color="255,230,230" fill="1" layer="-1.00" shape="1350.648358,936.772479 1347.148603,935.757168 1344.639114,944.278030 1348.128918,945.304556 1350.648358,936.772479"/>
    <poly id="484584679" type="building.yes" color="255,230,230" fill="1" layer="-1.00" shape="1367.251429,942.105120 1363.761779,941.089667 1361.252433,949.621602 1364.731980,950.637194 1367.251429,942.105120"/>
    <poly id="484584681" type="building.yes" color="255,230,230" fill="1" layer="-1.00" shape="1379.666490,897.951652 1377.544615,895.011811 1370.280659,900.185962 1372.392433,903.125941 1379.666490,897.951652"/>