<?xml version="1.0" encoding="UTF-8"?>

<!-- generated on 03/21/19 04:25:53 by Eclipse SUMO netedit Version 1.0.1
<configuration xmlns:xsi="http://www.w3.org/2001/XMLSchema-instance" xsi:noNamespaceSchemaLocation="http://sumo.dlr.de/xsd/netconvertConfiguration.xsd">

    <input>
        <sumo-net-file value="D:\munkz\fyp\Simulation\OSM_test\osm.net.xml"/>
    </input>

    <output>
        <output-file value="D:\munkz\fyp\Simulation\OSM_test\osm.net.xml"/>
        <output.street-names value="true"/>
    </output>

    <processing>
        <offset.disable-normalization value="true"/>
        <lefthand value="true"/>
    </processing>

    <junctions>
        <no-turnarounds value="true"/>
        <junctions.corner-detail value="5"/>
        <junctions.limit-turn-speed value="5.5"/>
        <rectangular-lane-cut value="false"/>
    </junctions>

    <pedestrian>
        <walkingareas value="false"/>
    </pedestrian>

</configuration>
-->

<net version="1.0" junctionCornerDetail="5" lefthand="true" limitTurnSpeed="5.50" xmlns:xsi="http://www.w3.org/2001/XMLSchema-instance" xsi:noNamespaceSchemaLocation="http://sumo.dlr.de/xsd/net_file.xsd">

    <location netOffset="-309348.94,-2755473.36" convBoundary="0.00,0.00,2788.15,3642.62" origBoundary="67.112002,24.902527,67.139567,24.935697" projParameter="+proj=utm +zone=42 +ellps=WGS84 +datum=WGS84 +units=m +no_defs"/>

    <type id="highway.bridleway" priority="1" numLanes="1" speed="2.78" allow="pedestrian" oneway="1" width="2.00"/>
    <type id="highway.bus_guideway" priority="1" numLanes="1" speed="27.78" allow="bus" oneway="1"/>
    <type id="highway.cycleway" priority="1" numLanes="1" speed="8.33" allow="bicycle" oneway="0" width="1.00"/>
    <type id="highway.footway" priority="1" numLanes="1" speed="2.78" allow="pedestrian" oneway="1" width="2.00"/>
    <type id="highway.ford" priority="1" numLanes="1" speed="2.78" allow="army" oneway="0"/>
    <type id="highway.living_street" priority="3" numLanes="1" speed="2.78" disallow="tram rail_urban rail rail_electric ship" oneway="0"/>
    <type id="highway.motorway" priority="13" numLanes="2" speed="44.44" allow="private emergency authority army vip passenger hov taxi bus coach delivery truck trailer motorcycle evehicle custom1 custom2" oneway="1"/>
    <type id="highway.motorway_link" priority="12" numLanes="1" speed="22.22" allow="private emergency authority army vip passenger hov taxi bus coach delivery truck trailer motorcycle evehicle custom1 custom2" oneway="1"/>
    <type id="highway.path" priority="1" numLanes="1" speed="2.78" allow="bicycle pedestrian" oneway="1" width="2.00"/>
    <type id="highway.pedestrian" priority="1" numLanes="1" speed="2.78" allow="pedestrian" oneway="1" width="2.00"/>
    <type id="highway.primary" priority="9" numLanes="2" speed="27.78" disallow="tram rail_urban rail rail_electric ship" oneway="0"/>
    <type id="highway.primary_link" priority="8" numLanes="1" speed="22.22" disallow="tram rail_urban rail rail_electric ship" oneway="0"/>
    <type id="highway.raceway" priority="14" numLanes="2" speed="83.33" allow="vip" oneway="0"/>
    <type id="highway.residential" priority="4" numLanes="1" speed="13.89" disallow="tram rail_urban rail rail_electric ship" oneway="0"/>
    <type id="highway.secondary" priority="7" numLanes="2" speed="27.78" disallow="tram rail_urban rail rail_electric ship" oneway="0"/>
    <type id="highway.secondary_link" priority="6" numLanes="1" speed="22.22" disallow="tram rail_urban rail rail_electric ship" oneway="0"/>
    <type id="highway.service" priority="2" numLanes="1" speed="5.56" allow="delivery bicycle pedestrian" oneway="0"/>
    <type id="highway.stairs" priority="1" numLanes="1" speed="1.39" allow="pedestrian" oneway="1" width="2.00"/>
    <type id="highway.step" priority="1" numLanes="1" speed="1.39" allow="pedestrian" oneway="1" width="2.00"/>
    <type id="highway.steps" priority="1" numLanes="1" speed="1.39" allow="pedestrian" oneway="1" width="2.00"/>
    <type id="highway.tertiary" priority="6" numLanes="1" speed="22.22" disallow="tram rail_urban rail rail_electric ship" oneway="0"/>
    <type id="highway.tertiary_link" priority="5" numLanes="1" speed="22.22" disallow="tram rail_urban rail rail_electric ship" oneway="0"/>
    <type id="highway.track" priority="1" numLanes="1" speed="5.56" disallow="tram rail_urban rail rail_electric ship" oneway="0"/>
    <type id="highway.trunk" priority="11" numLanes="2" speed="27.78" disallow="tram rail_urban rail rail_electric bicycle pedestrian ship" oneway="0"/>
    <type id="highway.trunk_link" priority="10" numLanes="1" speed="22.22" disallow="tram rail_urban rail rail_electric bicycle pedestrian ship" oneway="0"/>
    <type id="highway.unclassified" priority="5" numLanes="1" speed="13.89" disallow="tram rail_urban rail rail_electric ship" oneway="0"/>
    <type id="highway.unsurfaced" priority="1" numLanes="1" speed="8.33" disallow="tram rail_urban rail rail_electric ship" oneway="0"/>
    <type id="railway.light_rail" priority="15" numLanes="1" speed="27.78" allow="rail_urban" oneway="1"/>
    <type id="railway.preserved" priority="15" numLanes="1" speed="27.78" allow="rail" oneway="1"/>
    <type id="railway.rail" priority="15" numLanes="1" speed="83.33" allow="rail rail_electric" oneway="1"/>
    <type id="railway.subway" priority="15" numLanes="1" speed="27.78" allow="rail_urban" oneway="1"/>
    <type id="railway.tram" priority="15" numLanes="1" speed="13.89" allow="tram" oneway="1"/>

    <edge id=":-553237960#1-AddedOnRampNode_0" function="internal">
        <lane id=":-553237960#1-AddedOnRampNode_0_0" index="0" disallow="tram rail_urban rail rail_electric ship" speed="13.89" length="8.00" shape="1227.22,934.52 1220.91,929.60"/>
        <lane id=":-553237960#1-AddedOnRampNode_0_1" index="1" disallow="tram rail_urban rail rail_electric ship" speed="13.89" length="8.00" shape="1225.26,937.04 1218.95,932.13"/>
        <lane id=":-553237960#1-AddedOnRampNode_0_2" index="2" disallow="tram rail_urban rail rail_electric ship" speed="13.89" length="8.00" shape="1223.29,939.57 1216.98,934.65"/>
    </edge>
    <edge id=":223391216#6-AddedOnRampNode_0" function="internal">
        <lane id=":223391216#6-AddedOnRampNode_0_0" index="0" disallow="tram rail_urban rail rail_electric ship" speed="22.22" length="8.00" shape="1248.93,1164.69 1244.02,1171.01"/>
        <lane id=":223391216#6-AddedOnRampNode_0_1" index="1" disallow="tram rail_urban rail rail_electric ship" speed="22.22" length="8.00" shape="1251.45,1166.66 1246.55,1172.97"/>
    </edge>
    <edge id=":223403162#1-AddedOffRampNode_0" function="internal">
        <lane id=":223403162#1-AddedOffRampNode_0_0" index="0" disallow="tram rail_urban rail rail_electric ship" speed="27.78" length="8.20" shape="1220.31,957.17 1221.95,959.07 1222.50,960.88 1223.04,962.69 1224.69,964.59"/>
        <lane id=":223403162#1-AddedOffRampNode_0_1" index="1" disallow="tram rail_urban rail rail_electric ship" speed="27.78" length="8.20" shape="1220.31,957.17 1226.64,962.06"/>
        <lane id=":223403162#1-AddedOffRampNode_0_2" index="2" disallow="tram rail_urban rail rail_electric ship" speed="27.78" length="8.20" shape="1222.26,954.64 1228.59,959.53"/>
        <lane id=":223403162#1-AddedOffRampNode_0_3" index="3" disallow="tram rail_urban rail rail_electric ship" speed="27.78" length="8.20" shape="1224.22,952.10 1230.55,956.99"/>
    </edge>
    <edge id=":2322926279_0" function="internal">
        <lane id=":2322926279_0_0" index="0" disallow="tram rail_urban rail rail_electric ship" speed="6.18" length="8.35" shape="1692.14,829.74 1691.46,827.74 1691.71,825.96 1692.88,824.40 1694.98,823.06"/>
    </edge>
    <edge id=":2322926279_1" function="internal">
        <lane id=":2322926279_1_0" index="0" disallow="tram rail_urban rail rail_electric ship" speed="3.65" length="4.67" shape="1692.14,829.74 1690.86,829.06 1689.97,829.09 1689.45,829.82 1689.32,831.26"/>
    </edge>
    <edge id=":2322926279_2" function="internal">
        <lane id=":2322926279_2_0" index="0" disallow="tram rail_urban rail rail_electric ship" speed="6.47" length="8.57" shape="1681.98,829.27 1684.31,828.51 1686.31,828.58 1687.98,829.50 1689.32,831.26"/>
    </edge>
    <edge id=":2322926279_3" function="internal">
        <lane id=":2322926279_3_0" index="0" disallow="tram rail_urban rail rail_electric ship" speed="22.22" length="14.40" shape="1681.98,829.27 1694.98,823.06"/>
        <lane id=":2322926279_3_1" index="1" disallow="tram rail_urban rail rail_electric ship" speed="22.22" length="14.40" shape="1680.60,826.38 1693.60,820.18"/>
    </edge>
    <edge id=":2322926284_0" function="internal">
        <lane id=":2322926284_0_0" index="0" disallow="tram rail_urban rail rail_electric ship" speed="6.46" length="9.03" shape="1201.58,1266.41 1199.82,1264.66 1199.06,1262.77 1199.30,1260.75 1200.54,1258.60"/>
    </edge>
    <edge id=":2322926284_1" function="internal">
        <lane id=":2322926284_1_0" index="0" disallow="tram rail_urban rail rail_electric ship" speed="3.65" length="4.67" shape="1201.58,1266.41 1200.14,1266.34 1199.34,1266.74 1199.18,1267.62 1199.66,1268.98"/>
    </edge>
    <edge id=":2322926284_2" function="internal">
        <lane id=":2322926284_2_0" index="0" disallow="tram rail_urban rail rail_electric ship" speed="6.60" length="9.15" shape="1191.65,1269.93 1193.44,1268.23 1195.37,1267.50 1197.44,1267.75 1199.66,1268.98"/>
    </edge>
    <edge id=":2322926284_3" function="internal">
        <lane id=":2322926284_3_0" index="0" disallow="tram rail_urban rail rail_electric ship" speed="22.22" length="14.40" shape="1191.65,1269.93 1200.54,1258.60"/>
        <lane id=":2322926284_3_1" index="1" disallow="tram rail_urban rail rail_electric ship" speed="22.22" length="14.40" shape="1189.13,1267.95 1198.02,1256.63"/>
    </edge>
    <edge id=":2322926289_0" function="internal">
        <lane id=":2322926289_0_0" index="0" disallow="tram rail_urban rail rail_electric ship" speed="6.39" length="8.71" shape="1535.89,904.62 1535.21,902.42 1535.46,900.50 1536.62,898.87 1538.69,897.52"/>
    </edge>
    <edge id=":2322926289_1" function="internal">
        <lane id=":2322926289_1_0" index="0" disallow="tram rail_urban rail rail_electric ship" speed="3.65" length="4.67" shape="1535.89,904.62 1534.64,903.88 1533.75,903.87 1533.20,904.58 1533.00,906.01"/>
    </edge>
    <edge id=":2322926289_2" function="internal">
        <lane id=":2322926289_2_0" index="0" disallow="tram rail_urban rail rail_electric ship" speed="6.31" length="8.64" shape="1525.75,903.97 1528.09,903.12 1530.07,903.18 1531.71,904.14 1533.00,906.01"/>
    </edge>
    <edge id=":2322926289_3" function="internal">
        <lane id=":2322926289_3_0" index="0" disallow="tram rail_urban rail rail_electric ship" speed="22.22" length="14.51" shape="1525.75,903.97 1538.69,897.52"/>
        <lane id=":2322926289_3_1" index="1" disallow="tram rail_urban rail rail_electric ship" speed="22.22" length="14.51" shape="1524.28,901.13 1537.32,894.63"/>
    </edge>
    <edge id=":2322926318_0" function="internal">
        <lane id=":2322926318_0_0" index="0" disallow="tram rail_urban rail rail_electric ship" speed="3.65" length="4.67" shape="313.25,802.68 311.82,802.54 311.00,802.91 310.80,803.78 311.23,805.16"/>
    </edge>
    <edge id=":2322926336_0" function="internal">
        <lane id=":2322926336_0_0" index="0" disallow="tram rail_urban rail rail_electric ship" speed="6.79" length="9.02" shape="1311.78,1130.60 1310.37,1128.61 1309.86,1126.60 1310.24,1124.56 1311.52,1122.49"/>
    </edge>
    <edge id=":2322926336_1" function="internal">
        <lane id=":2322926336_1_0" index="0" disallow="tram rail_urban rail rail_electric ship" speed="3.65" length="4.67" shape="1311.78,1130.60 1310.38,1130.27 1309.52,1130.53 1309.21,1131.37 1309.46,1132.80"/>
    </edge>
    <edge id=":2322926336_2" function="internal">
        <lane id=":2322926336_2_0" index="0" disallow="tram rail_urban rail rail_electric ship" speed="6.76" length="10.93" shape="1300.21,1131.45 1302.14,1129.80 1304.33,1129.48 1306.77,1130.48 1309.46,1132.80"/>
    </edge>
    <edge id=":2322926336_3" function="internal">
        <lane id=":2322926336_3_0" index="0" disallow="tram rail_urban rail rail_electric ship" speed="22.22" length="14.16" shape="1300.21,1131.45 1309.05,1120.45"/>
        <lane id=":2322926336_3_1" index="1" disallow="tram rail_urban rail rail_electric ship" speed="22.22" length="14.16" shape="1297.69,1129.47 1306.59,1118.41"/>
    </edge>
    <edge id=":2322926360_0" function="internal">
        <lane id=":2322926360_0_0" index="0" disallow="tram rail_urban rail rail_electric ship" speed="6.65" length="9.08" shape="1071.22,1393.18 1069.45,1394.89 1067.54,1395.65 1065.47,1395.48 1063.25,1394.36"/>
    </edge>
    <edge id=":2322926360_1" function="internal">
        <lane id=":2322926360_1_0" index="0" disallow="tram rail_urban rail rail_electric ship" speed="22.22" length="14.46" shape="1071.22,1393.18 1062.27,1404.51"/>
        <lane id=":2322926360_1_1" index="1" disallow="tram rail_urban rail rail_electric ship" speed="22.22" length="14.46" shape="1073.75,1395.15 1064.77,1406.51"/>
    </edge>
    <edge id=":2322926360_3" function="internal">
        <lane id=":2322926360_3_0" index="0" disallow="tram rail_urban rail rail_electric ship" speed="6.27" length="8.76" shape="1061.43,1397.00 1063.14,1398.61 1063.85,1400.40 1063.56,1402.37 1062.27,1404.51"/>
    </edge>
    <edge id=":2322926360_4" function="internal">
        <lane id=":2322926360_4_0" index="0" disallow="tram rail_urban rail rail_electric ship" speed="3.65" length="4.67" shape="1061.43,1397.00 1062.87,1397.02 1063.66,1396.59 1063.78,1395.71 1063.25,1394.36"/>
    </edge>
    <edge id=":2322926367_0" function="internal">
        <lane id=":2322926367_0_0" index="0" disallow="tram rail_urban rail rail_electric ship" speed="3.65" length="4.67" shape="718.88,605.41 717.44,605.33 716.64,605.73 716.48,606.61 716.96,607.97"/>
    </edge>
    <edge id=":2322928896_0" function="internal">
        <lane id=":2322928896_0_0" index="0" disallow="tram rail_urban rail rail_electric ship" speed="6.51" length="8.73" shape="1765.18,717.60 1762.91,718.29 1760.93,718.11 1759.25,717.05 1757.86,715.12"/>
    </edge>
    <edge id=":2322928896_1" function="internal">
        <lane id=":2322928896_1_0" index="0" disallow="tram rail_urban rail rail_electric ship" speed="8.01" length="13.72" shape="1765.18,717.60 1762.05,719.63 1760.27,722.20 1759.84,725.29 1760.76,728.91"/>
    </edge>
    <edge id=":2322928896_2" function="internal">
        <lane id=":2322928896_2_0" index="0" disallow="tram rail_urban rail rail_electric ship" speed="3.65" length="4.67" shape="1765.18,717.60 1764.43,718.83 1764.41,719.72 1765.11,720.28 1766.53,720.50"/>
    </edge>
    <edge id=":2322928896_3" function="internal">
        <lane id=":2322928896_3_0" index="0" disallow="tram rail_urban rail rail_electric ship" speed="6.51" length="8.73" shape="1763.72,727.70 1763.13,725.40 1763.41,723.43 1764.54,721.79 1766.53,720.50"/>
    </edge>
    <edge id=":2322928896_4" function="internal">
        <lane id=":2322928896_4_0" index="0" disallow="tram rail_urban rail rail_electric ship" speed="13.89" length="13.88" shape="1763.72,727.70 1762.33,724.41 1760.95,721.34 1759.49,718.30 1757.86,715.12"/>
    </edge>
    <edge id=":2322928896_5" function="internal">
        <lane id=":2322928896_5_0" index="0" disallow="tram rail_urban rail rail_electric ship" speed="3.65" length="2.34" shape="1763.72,727.70 1762.52,726.89 1761.63,726.83"/>
    </edge>
    <edge id=":2322928896_9" function="internal">
        <lane id=":2322928896_9_0" index="0" speed="3.65" length="2.34" shape="1761.63,726.83 1761.04,727.50 1760.76,728.91"/>
    </edge>
    <edge id=":2322928896_6" function="internal">
        <lane id=":2322928896_6_0" index="0" disallow="tram rail_urban rail rail_electric ship" speed="13.89" length="13.58" shape="1755.02,716.61 1756.63,719.75 1758.05,722.69 1759.39,725.66 1760.76,728.91"/>
    </edge>
    <edge id=":2322928896_7" function="internal">
        <lane id=":2322928896_7_0" index="0" disallow="tram rail_urban rail rail_electric ship" speed="8.01" length="5.68" shape="1755.02,716.61 1757.20,719.64 1758.85,720.67"/>
    </edge>
    <edge id=":2322928896_8" function="internal">
        <lane id=":2322928896_8_0" index="0" disallow="tram rail_urban rail rail_electric ship" speed="3.65" length="2.34" shape="1755.02,716.61 1756.29,717.30 1757.18,717.28"/>
    </edge>
    <edge id=":2322928896_10" function="internal">
        <lane id=":2322928896_10_0" index="0" speed="8.01" length="8.04" shape="1758.85,720.67 1759.85,721.30 1762.96,721.58 1766.53,720.50"/>
    </edge>
    <edge id=":2322928896_11" function="internal">
        <lane id=":2322928896_11_0" index="0" speed="3.65" length="2.34" shape="1757.18,717.28 1757.71,716.56 1757.86,715.12"/>
    </edge>
    <edge id=":2322928897_0" function="internal">
        <lane id=":2322928897_0_0" index="0" disallow="tram rail_urban rail rail_electric ship" speed="6.39" length="9.04" shape="1777.38,746.01 1774.99,746.75 1772.98,746.53 1771.34,745.34 1770.08,743.19"/>
    </edge>
    <edge id=":2322928897_1" function="internal">
        <lane id=":2322928897_1_0" index="0" disallow="tram rail_urban rail rail_electric ship" speed="13.89" length="14.39" shape="1777.38,746.01 1764.44,752.30"/>
    </edge>
    <edge id=":2322928897_2" function="internal">
        <lane id=":2322928897_2_0" index="0" disallow="tram rail_urban rail rail_electric ship" speed="3.65" length="2.34" shape="1777.38,746.01 1776.64,747.25 1776.62,748.14"/>
    </edge>
    <edge id=":2322928897_9" function="internal">
        <lane id=":2322928897_9_0" index="0" speed="3.65" length="2.34" shape="1776.62,748.14 1777.32,748.69 1778.75,748.90"/>
    </edge>
    <edge id=":2322928897_3" function="internal">
        <lane id=":2322928897_3_0" index="0" disallow="tram rail_urban rail rail_electric ship" speed="13.89" length="14.34" shape="1765.86,755.16 1778.75,748.90"/>
    </edge>
    <edge id=":2322928897_4" function="internal">
        <lane id=":2322928897_4_0" index="0" disallow="tram rail_urban rail rail_electric ship" speed="8.23" length="5.74" shape="1765.86,755.16 1768.97,753.01 1770.02,751.36"/>
    </edge>
    <edge id=":2322928897_5" function="internal">
        <lane id=":2322928897_5_0" index="0" disallow="tram rail_urban rail rail_electric ship" speed="3.65" length="2.34" shape="1765.86,755.16 1766.58,753.91 1766.58,753.02"/>
    </edge>
    <edge id=":2322928897_10" function="internal">
        <lane id=":2322928897_10_0" index="0" speed="8.23" length="8.52" shape="1770.02,751.36 1770.71,750.29 1771.08,747.02 1770.08,743.19"/>
    </edge>
    <edge id=":2322928897_11" function="internal">
        <lane id=":2322928897_11_0" index="0" speed="3.65" length="2.34" shape="1766.58,753.02 1765.87,752.48 1764.44,752.30"/>
    </edge>
    <edge id=":2322928897_6" function="internal">
        <lane id=":2322928897_6_0" index="0" disallow="tram rail_urban rail rail_electric ship" speed="6.78" length="9.36" shape="1767.12,744.41 1767.79,746.95 1767.57,749.11 1766.45,750.89 1764.44,752.30"/>
    </edge>
    <edge id=":2322928897_7" function="internal">
        <lane id=":2322928897_7_0" index="0" disallow="tram rail_urban rail rail_electric ship" speed="7.90" length="14.41" shape="1767.12,744.41 1769.14,747.84 1771.75,749.73 1774.95,750.08 1778.75,748.90"/>
    </edge>
    <edge id=":2322928897_8" function="internal">
        <lane id=":2322928897_8_0" index="0" disallow="tram rail_urban rail rail_electric ship" speed="3.65" length="4.67" shape="1767.12,744.41 1768.31,745.21 1769.20,745.28 1769.79,744.61 1770.08,743.19"/>
    </edge>
    <edge id=":2322928904_0" function="internal">
        <lane id=":2322928904_0_0" index="0" disallow="tram rail_urban rail rail_electric ship" speed="3.65" length="4.67" shape="2366.26,445.57 2367.05,444.36 2367.10,443.47 2366.41,442.89 2365.00,442.63"/>
    </edge>
    <edge id=":2322928905_0" function="internal">
        <lane id=":2322928905_0_0" index="0" disallow="tram rail_urban rail rail_electric ship" speed="3.65" length="4.67" shape="1712.44,613.64 1711.32,612.73 1710.44,612.58 1709.79,613.20 1709.38,614.58"/>
    </edge>
    <edge id=":2322928906_0" function="internal">
        <lane id=":2322928906_0_0" index="0" disallow="tram rail_urban rail rail_electric ship" speed="6.63" length="9.28" shape="1860.88,672.90 1858.47,673.66 1856.37,673.48 1854.60,672.34 1853.15,670.26"/>
    </edge>
    <edge id=":2322928906_1" function="internal">
        <lane id=":2322928906_1_0" index="0" disallow="tram rail_urban rail rail_electric ship" speed="13.89" length="14.58" shape="1860.88,672.90 1847.71,679.13"/>
    </edge>
    <edge id=":2322928906_2" function="internal">
        <lane id=":2322928906_2_0" index="0" disallow="tram rail_urban rail rail_electric ship" speed="7.95" length="5.87" shape="1860.88,672.90 1857.61,675.09 1856.56,676.71"/>
    </edge>
    <edge id=":2322928906_3" function="internal">
        <lane id=":2322928906_3_0" index="0" disallow="tram rail_urban rail rail_electric ship" speed="3.65" length="2.34" shape="1860.88,672.90 1860.15,674.14 1860.14,675.03"/>
    </edge>
    <edge id=":2322928906_16" function="internal">
        <lane id=":2322928906_16_0" index="0" speed="7.95" length="8.44" shape="1856.56,676.71 1855.87,677.79 1855.64,681.00 1856.94,684.72"/>
    </edge>
    <edge id=":2322928906_17" function="internal">
        <lane id=":2322928906_17_0" index="0" speed="3.65" length="2.34" shape="1860.14,675.03 1860.84,675.58 1862.27,675.78"/>
    </edge>
    <edge id=":2322928906_4" function="internal">
        <lane id=":2322928906_4_0" index="0" disallow="tram rail_urban rail rail_electric ship" speed="6.44" length="9.03" shape="1859.78,683.24 1858.96,680.90 1859.10,678.87 1860.21,677.16 1862.27,675.78"/>
    </edge>
    <edge id=":2322928906_5" function="internal">
        <lane id=":2322928906_5_0" index="0" disallow="tram rail_urban rail rail_electric ship" speed="13.89" length="14.58" shape="1859.78,683.24 1853.15,670.26"/>
    </edge>
    <edge id=":2322928906_6" function="internal">
        <lane id=":2322928906_6_0" index="0" disallow="tram rail_urban rail rail_electric ship" speed="8.18" length="14.41" shape="1859.78,683.24 1857.50,680.05 1854.73,678.29 1851.47,677.99 1847.71,679.13"/>
    </edge>
    <edge id=":2322928906_7" function="internal">
        <lane id=":2322928906_7_0" index="0" disallow="tram rail_urban rail rail_electric ship" speed="3.65" length="4.67" shape="1859.78,683.24 1858.52,682.55 1857.62,682.56 1857.10,683.28 1856.94,684.72"/>
    </edge>
    <edge id=":2322928906_8" function="internal">
        <lane id=":2322928906_8_0" index="0" disallow="tram rail_urban rail rail_electric ship" speed="6.73" length="9.40" shape="1849.06,682.03 1851.51,681.29 1853.64,681.49 1855.45,682.63 1856.94,684.72"/>
    </edge>
    <edge id=":2322928906_9" function="internal">
        <lane id=":2322928906_9_0" index="0" disallow="tram rail_urban rail rail_electric ship" speed="13.89" length="14.61" shape="1849.06,682.03 1862.27,675.78"/>
    </edge>
    <edge id=":2322928906_10" function="internal">
        <lane id=":2322928906_10_0" index="0" disallow="tram rail_urban rail rail_electric ship" speed="7.95" length="6.00" shape="1849.06,682.03 1852.36,679.88 1853.50,678.16"/>
    </edge>
    <edge id=":2322928906_11" function="internal">
        <lane id=":2322928906_11_0" index="0" disallow="tram rail_urban rail rail_electric ship" speed="3.65" length="2.34" shape="1849.06,682.03 1849.81,680.80 1849.84,679.91"/>
    </edge>
    <edge id=":2322928906_18" function="internal">
        <lane id=":2322928906_18_0" index="0" speed="7.95" length="8.31" shape="1853.50,678.16 1854.14,677.20 1854.40,673.99 1853.15,670.26"/>
    </edge>
    <edge id=":2322928906_19" function="internal">
        <lane id=":2322928906_19_0" index="0" speed="3.65" length="2.34" shape="1849.84,679.91 1849.14,679.35 1847.71,679.13"/>
    </edge>
    <edge id=":2322928906_12" function="internal">
        <lane id=":2322928906_12_0" index="0" disallow="tram rail_urban rail rail_electric ship" speed="6.44" length="9.03" shape="1850.29,671.70 1851.08,674.06 1850.92,676.08 1849.79,677.77 1847.71,679.13"/>
    </edge>
    <edge id=":2322928906_13" function="internal">
        <lane id=":2322928906_13_0" index="0" disallow="tram rail_urban rail rail_electric ship" speed="13.89" length="14.62" shape="1850.29,671.70 1856.94,684.72"/>
    </edge>
    <edge id=":2322928906_14" function="internal">
        <lane id=":2322928906_14_0" index="0" disallow="tram rail_urban rail rail_electric ship" speed="8.10" length="14.37" shape="1850.29,671.70 1852.53,674.93 1855.28,676.68 1858.52,676.97 1862.27,675.78"/>
    </edge>
    <edge id=":2322928906_15" function="internal">
        <lane id=":2322928906_15_0" index="0" disallow="tram rail_urban rail rail_electric ship" speed="3.65" length="4.67" shape="1850.29,671.70 1851.55,672.41 1852.44,672.41 1852.97,671.69 1853.15,670.26"/>
    </edge>
    <edge id=":2322928909_0" function="internal">
        <lane id=":2322928909_0_0" index="0" disallow="tram rail_urban rail rail_electric ship" speed="3.65" length="4.67" shape="1905.81,588.10 1906.81,587.06 1907.03,586.20 1906.47,585.50 1905.13,584.98"/>
    </edge>
    <edge id=":2322930271_0" function="internal">
        <lane id=":2322930271_0_0" index="0" disallow="tram rail_urban rail rail_electric ship" speed="22.22" length="8.49" shape="1386.88,988.80 1385.24,990.70 1384.00,991.92 1382.59,992.93 1380.44,994.23"/>
    </edge>
    <edge id=":2322930271_1" function="internal">
        <lane id=":2322930271_1_0" index="0" disallow="tram rail_urban rail rail_electric ship" speed="22.22" length="8.47" shape="1389.32,990.87 1383.88,997.40"/>
        <lane id=":2322930271_1_1" index="1" disallow="tram rail_urban rail rail_electric ship" speed="22.22" length="8.47" shape="1391.76,992.94 1386.36,999.43"/>
    </edge>
    <edge id=":2322930280_0" function="internal">
        <lane id=":2322930280_0_0" index="0" disallow="tram rail_urban rail rail_electric ship" speed="3.65" length="4.67" shape="2377.69,472.61 2378.46,471.39 2378.50,470.50 2377.81,469.93 2376.39,469.69"/>
    </edge>
    <edge id=":2322930284_0" function="internal">
        <lane id=":2322930284_0_0" index="0" disallow="tram rail_urban rail rail_electric ship" speed="3.65" length="4.67" shape="1465.43,896.22 1464.68,897.45 1464.66,898.35 1465.36,898.90 1466.79,899.12"/>
    </edge>
    <edge id=":2322930295_0" function="internal">
        <lane id=":2322930295_0_0" index="0" disallow="tram rail_urban rail rail_electric ship" speed="22.22" length="8.36" shape="1410.71,1000.41 1411.61,998.10 1412.31,996.55 1413.18,995.09 1414.57,993.03"/>
    </edge>
    <edge id=":2322930295_1" function="internal">
        <lane id=":2322930295_1_0" index="0" disallow="tram rail_urban rail rail_electric ship" speed="22.22" length="8.21" shape="1406.98,997.92 1411.93,991.22"/>
        <lane id=":2322930295_1_1" index="1" disallow="tram rail_urban rail rail_electric ship" speed="22.22" length="8.21" shape="1404.48,995.93 1409.29,989.41"/>
    </edge>
    <edge id=":2322930303_0" function="internal">
        <lane id=":2322930303_0_0" index="0" disallow="tram rail_urban rail rail_electric ship" speed="18.06" length="8.00" shape="1308.23,993.11 1301.84,988.30"/>
    </edge>
    <edge id=":2322930303_1" function="internal">
        <lane id=":2322930303_1_0" index="0" disallow="tram rail_urban rail rail_electric ship" speed="13.89" length="8.00" shape="1306.24,995.71 1299.89,990.84"/>
        <lane id=":2322930303_1_1" index="1" disallow="tram rail_urban rail rail_electric ship" speed="13.89" length="8.00" shape="1304.29,998.25 1297.94,993.38"/>
        <lane id=":2322930303_1_2" index="2" disallow="tram rail_urban rail rail_electric ship" speed="13.89" length="8.00" shape="1302.34,1000.79 1295.99,995.92"/>
    </edge>
    <edge id=":2322930307_0" function="internal">
        <lane id=":2322930307_0_0" index="0" disallow="tram rail_urban rail rail_electric ship" speed="19.45" length="11.20" shape="1430.54,1098.80 1428.08,1096.49 1426.10,1095.12 1424.03,1094.06 1421.25,1092.69"/>
    </edge>
    <edge id=":2322930307_1" function="internal">
        <lane id=":2322930307_1_0" index="0" disallow="tram rail_urban rail rail_electric ship" speed="15.28" length="9.37" shape="1428.25,1101.03 1420.80,1093.62"/>
        <lane id=":2322930307_1_1" index="1" disallow="tram rail_urban rail rail_electric ship" speed="15.28" length="9.37" shape="1425.96,1103.27 1419.32,1096.65"/>
        <lane id=":2322930307_1_2" index="2" disallow="tram rail_urban rail rail_electric ship" speed="15.28" length="9.37" shape="1423.67,1105.50 1417.85,1099.69"/>
    </edge>
    <edge id=":2322930309_0" function="internal">
        <lane id=":2322930309_0_0" index="0" disallow="tram rail_urban rail rail_electric ship" speed="25.00" length="8.18" shape="1297.43,1020.68 1299.35,1022.17 1300.63,1023.23 1301.86,1024.35 1303.60,1026.05"/>
    </edge>
    <edge id=":2322930309_1" function="internal">
        <lane id=":2322930309_1_0" index="0" disallow="tram rail_urban rail rail_electric ship" speed="27.78" length="8.54" shape="1299.38,1018.15 1305.91,1023.43"/>
        <lane id=":2322930309_1_1" index="1" disallow="tram rail_urban rail rail_electric ship" speed="27.78" length="8.54" shape="1301.34,1015.61 1307.98,1020.99"/>