<?xml version="1.0" encoding="UTF-8"?>
<!-- generated on 2019-03-17 20:46:34.521616 by $Id$ via randomTrips.py
  options: 
-->
<routes xmlns:xsi="http://www.w3.org/2001/XMLSchema-instance" xsi:noNamespaceSchemaLocation="http://sumo.dlr.de/xsd/routes_file.xsd">
    <vType id="moto_motorcycle" vClass="motorcycle">
    </vType>
    <trip id="moto1" depart="1.47" departLane="best" from="-223640817#5" to="-223640805#2" type="moto_motorcycle"/>
    <trip id="moto2" depart="2.94" departLane="best" from="223555675#1" to="223506806#2" type="moto_motorcycle"/>
    <trip id="moto3" depart="4.41" departLane="best" from="223641160#1" to="-223404341#1" type="moto_motorcycle"/>
    <trip id="moto6" depart="8.82" departLane="best" from="-223391416#0" to="-223555572#3" type="moto_motorcycle"/>
    <trip id="moto7" depart="10.29" departLane="best" from="223415724#2" to="223403444#1" type="moto_motorcycle"/>
    <trip id="moto8" depart="11.76" departLane="best" from="-223640805#0" to="223404341#1" type="moto_motorcycle"/>
    <trip id="moto9" depart="13.23" departLane="best" from="223640819#1" to="-223391207#3" type="moto_motorcycle"/>
    <trip id="moto10" depart="14.70" departLane="best" from="223640817#7" to="223555563#3" type="moto_motorcycle"/>
    <trip id="moto11" depart="16.17" departLane="best" from="-223641148#1" to="-223503266#0" type="moto_motorcycle"/>
    <trip id="moto12" depart="17.64" departLane="best" from="640406765#1" to="-223640831#2" type="moto_motorcycle"/>
    <trip id="moto13" depart="19.11" departLane="best" from="-223404341#5" to="-223404452#1" type="moto_motorcycle"/>
    <trip id="moto14" depart="20.59" departLane="best" from="223640819#0" to="223556865" type="moto_motorcycle"/>
    <trip id="moto15" depart="22.06" departLane="best" from="-223641164" to="223403444#4" type="moto_motorcycle"/>
    <trip id="moto16" depart="23.53" departLane="best" from="223640821#1" to="223415715#4" type="moto_motorcycle"/>
    <trip id="moto17" depart="25.00" departLane="best" from="223640831#0" to="223404328#3" type="moto_motorcycle"/>
    <trip id="moto18" depart="26.47" departLane="best" from="223531010#4" to="-223403444#2" type="moto_motorcycle"/>
    <trip id="moto19" depart="27.94" departLane="best" from="-223640806#0" to="-223640820#2" type="moto_motorcycle"/>
    <trip id="moto20" depart="29.41" departLane="best" from="-223404328#5" to="-223640811#1" type="moto_motorcycle"/>
    <trip id="moto21" depart="30.88" departLane="best" from="-223415704" to="-223640819#0" type="moto_motorcycle"/>
    <trip id="moto22" depart="32.35" departLane="best" from="223415715#4" to="-223641160#2" type="moto_motorcycle"/>
    <trip id="moto23" depart="33.82" departLane="best" from="-223641160#5" to="-223555675#2" type="moto_motorcycle"/>
    <trip id="moto24" depart="35.29" departLane="best" from="-223640817#1" to="523699569#11" type="moto_motorcycle"/>
    <trip id="moto25" depart="36.76" departLane="best" from="223415724#11" to="223415713" type="moto_motorcycle"/>
    <trip id="moto26" depart="38.23" departLane="best" from="-223531010#0" to="223556865" type="moto_motorcycle"/>
    <trip id="moto27" depart="39.70" departLane="best" from="-223503269" to="-223641170" type="moto_motorcycle"/>
    <trip id="moto28" depart="41.17" departLane="best" from="641301563#1" to="223415724#9" type="moto_motorcycle"/>
    <trip id="moto29" depart="42.64" departLane="best" from="223403162#2" to="223531010#3" type="moto_motorcycle"/>
    <trip id="moto30" depart="44.11" departLane="best" from="223640823#1" to="223640817#0" type="moto_motorcycle"/>
    <trip id="moto32" depart="47.05" departLane="best" from="-223640823#2" to="-223640817#2" type="moto_motorcycle"/>
    <trip id="moto33" depart="48.52" departLane="best" from="223641148#4" to="-223640823#2" type="moto_motorcycle"/>
    <trip id="moto34" depart="49.99" departLane="best" from="484563086#0" to="223391207#1" type="moto_motorcycle"/>
    <trip id="moto35" depart="51.46" departLane="best" from="-223640817#0" to="-223640814#0" type="moto_motorcycle"/>
    <trip id="moto36" depart="52.93" departLane="best" from="223403444#0" to="-223640816#2" type="moto_motorcycle"/>
    <trip id="moto37" depart="54.40" departLane="best" from="223404325#2" to="484563086#0" type="moto_motorcycle"/>
    <trip id="moto38" depart="55.87" departLane="best" from="-484563087#2" to="-223640805#0" type="moto_motorcycle"/>
    <trip id="moto40" depart="58.81" departLane="best" from="-223404341#4" to="-223403444#3" type="moto_motorcycle"/>
    <trip id="moto41" depart="60.29" departLane="best" from="-223415715#1" to="223415724#10" type="moto_motorcycle"/>
    <trip id="moto44" depart="64.70" departLane="best" from="641301568#0" to="223391574" type="moto_motorcycle"/>
    <trip id="moto45" depart="66.17" departLane="best" from="641301554#0" to="223641156#0" type="moto_motorcycle"/>
    <trip id="moto46" depart="67.64" departLane="best" from="-223391207#5" to="223555675#2" type="moto_motorcycle"/>
    <trip id="moto47" depart="69.11" departLane="best" from="223503266#2" to="223403162#1" type="moto_motorcycle"/>
    <trip id="moto48" depart="70.58" departLane="best" from="-223640817#1" to="223415924#0" type="moto_motorcycle"/>
    <trip id="moto49" depart="72.05" departLane="best" from="-223415715#2" to="-641301555#0" type="moto_motorcycle"/>
    <trip id="moto50" depart="73.52" departLane="best" from="-641301568#1" to="523699569#8" type="moto_motorcycle"/>
    <trip id="moto51" depart="74.99" departLane="best" from="223641148#4" to="-223640816#2" type="moto_motorcycle"/>
    <trip id="moto52" depart="76.46" departLane="best" from="223391412#0" to="-223531010#4" type="moto_motorcycle"/>
    <trip id="moto53" depart="77.93" departLane="best" from="270435960" to="223641158#1" type="moto_motorcycle"/>
    <trip id="moto54" depart="79.40" departLane="best" from="-223640821#0" to="223415724#9" type="moto_motorcycle"/>
    <trip id="moto55" depart="80.87" departLane="best" from="223404341#2" to="-223503265#2" type="moto_motorcycle"/>
    <trip id="moto56" depart="82.34" departLane="best" from="223640811#1" to="223403162#2" type="moto_motorcycle"/>
    <trip id="moto57" depart="83.81" departLane="best" from="223640814#1" to="223391576" type="moto_motorcycle"/>
    <trip id="moto58" depart="85.28" departLane="best" from="-223391207#0" to="-223640825#1" type="moto_motorcycle"/>
    <trip id="moto59" depart="86.75" departLane="best" from="-223391412#2" to="523699569#11" type="moto_motorcycle"/>
    <trip id="moto60" depart="88.22" departLane="best" from="223641156#0" to="223640824#1" type="moto_motorcycle"/>
    <trip id="moto61" depart="89.69" departLane="best" from="-223640821#5" to="-223403444#8" type="moto_motorcycle"/>
    <trip id="moto62" depart="91.16" departLane="best" from="223641156#0" to="523699569#3" type="moto_motorcycle"/>
    <trip id="moto63" depart="92.63" departLane="best" from="-223404328#0" to="223640814#1" type="moto_motorcycle"/>
    <trip id="moto64" depart="94.10" departLane="best" from="223640812#1" to="-223415724#2" type="moto_motorcycle"/>
    <trip id="moto65" depart="95.57" departLane="best" from="-223640817#0" to="223641160#0" type="moto_motorcycle"/>
    <trip id="moto67" depart="98.52" departLane="best" from="-223555572#4" to="-223640823#0" type="moto_motorcycle"/>
    <trip id="moto68" depart="99.99" departLane="best" from="641301566#1" to="223503263#1" type="moto_motorcycle"/>
    <trip id="moto70" depart="102.93" departLane="best" from="-223415724#0" to="-223640805#3" type="moto_motorcycle"/>
    <trip id="moto71" depart="104.40" departLane="best" from="-223641148#0" to="223404341#1" type="moto_motorcycle"/>
    <trip id="moto72" depart="105.87" departLane="best" from="-223640806#1" to="-223640805#0" type="moto_motorcycle"/>
    <trip id="moto73" depart="107.34" departLane="best" from="-223404328#1" to="223415724#2" type="moto_motorcycle"/>
    <trip id="moto74" depart="108.81" departLane="best" from="223640829" to="-223404328#1" type="moto_motorcycle"/>
    <trip id="moto75" depart="110.28" departLane="best" from="-223640812#1" to="223503267#1" type="moto_motorcycle"/>
    <trip id="moto76" depart="111.75" departLane="best" from="-223555676#0" to="-223415724#5" type="moto_motorcycle"/>
    <trip id="moto77" depart="113.22" departLane="best" from="223391216#0" to="223640817#4" type="moto_motorcycle"/>
    <trip id="moto78" depart="114.69" departLane="best" from="223640819#0" to="-223555563#5" type="moto_motorcycle"/>
    <trip id="moto79" depart="116.16" departLane="best" from="-223404452#1" to="-641301552" type="moto_motorcycle"/>
    <trip id="moto81" depart="119.10" departLane="best" from="223555572#4" to="223506806#0" type="moto_motorcycle"/>
    <trip id="moto82" depart="120.57" departLane="best" from="641301560#1" to="-223404452#2" type="moto_motorcycle"/>
    <trip id="moto83" depart="122.04" departLane="best" from="-484563087#2" to="-223641148#0" type="moto_motorcycle"/>
    <trip id="moto84" depart="123.51" departLane="best" from="223640831#0" to="-223640814#1" type="moto_motorcycle"/>
    <trip id="moto85" depart="124.98" departLane="best" from="-223555563#5" to="-641301565" type="moto_motorcycle"/>
    <trip id="moto87" depart="127.92" departLane="best" from="-223640814#1" to="523699569#1" type="moto_motorcycle"/>
    <trip id="moto88" depart="129.39" departLane="best" from="-641301560#0" to="223641156#1" type="moto_motorcycle"/>
    <trip id="moto89" depart="130.86" departLane="best" from="641301568#1" to="223640825#2" type="moto_motorcycle"/>
    <trip id="moto90" depart="132.33" departLane="best" from="223640824#1" to="-223506806#1" type="moto_motorcycle"/>
    <trip id="moto91" depart="133.80" departLane="best" from="-223641170" to="641301562" type="moto_motorcycle"/>
    <trip id="moto92" depart="135.27" departLane="best" from="-223640817#0" to="223640817#4" type="moto_motorcycle"/>
    <trip id="moto94" depart="138.22" departLane="best" from="640406765#1" to="641301566#1" type="moto_motorcycle"/>
    <trip id="moto95" depart="139.69" departLane="best" from="223403162#1-AddedOffRampEdge" to="223555675#0" type="moto_motorcycle"/>
    <trip id="moto96" depart="141.16" departLane="best" from="-223503266#0" to="-223640820#5" type="moto_motorcycle"/>
    <trip id="moto97" depart="142.63" departLane="best" from="641301537" to="223404328#4" type="moto_motorcycle"/>
    <trip id="moto98" depart="144.10" departLane="best" from="-223403444#8" to="223404331" type="moto_motorcycle"/>
    <trip id="moto99" depart="145.57" departLane="best" from="223391412#1" to="223641148#1" type="moto_motorcycle"/>
    <trip id="moto100" depart="147.04" departLane="best" from="-223503266#1" to="641301529" type="moto_motorcycle"/>
    <trip id="moto101" depart="148.51" departLane="best" from="-223404328#6" to="-223555563#3" type="moto_motorcycle"/>
    <trip id="moto102" depart="149.98" departLane="best" from="223404328#3" to="223506806#1" type="moto_motorcycle"/>
    <trip id="moto103" depart="151.45" departLane="best" from="-223640812#0" to="-223415724#0" type="moto_motorcycle"/>
    <trip id="moto104" depart="152.92" departLane="best" from="223641160#0" to="-223640814#0" type="moto_motorcycle"/>
    <trip id="moto105" depart="154.39" departLane="best" from="223404328#3" to="223415715#5" type="moto_motorcycle"/>
    <trip id="moto106" depart="155.86" departLane="best" from="-641301529" to="223404328#6" type="moto_motorcycle"/>
    <trip id="moto107" depart="157.33" departLane="best" from="223391573#0" to="523699569#11" type="moto_motorcycle"/>
    <trip id="moto108" depart="158.80" departLane="best" from="-223555674#1" to="223555674#1" type="moto_motorcycle"/>
    <trip id="moto109" depart="160.27" departLane="best" from="223503265#0" to="-223640821#1" type="moto_motorcycle"/>
    <trip id="moto110" depart="161.74" departLane="best" from="-223640823#2" to="223640812#2" type="moto_motorcycle"/>
    <trip id="moto111" depart="163.21" departLane="best" from="-223404328#2" to="223391207#1" type="moto_motorcycle"/>
    <trip id="moto112" depart="164.68" departLane="best" from="641301568#1" to="641301568#0" type="moto_motorcycle"/>
    <trip id="moto113" depart="166.15" departLane="best" from="-223404328#2" to="-223555676#0" type="moto_motorcycle"/>
    <trip id="moto114" depart="167.62" departLane="best" from="-223640817#0" to="523699569#11" type="moto_motorcycle"/>
    <trip id="moto115" depart="169.09" departLane="best" from="223641156#2" to="223641160#4" type="moto_motorcycle"/>
    <trip id="moto116" depart="170.56" departLane="best" from="-223641160#5" to="-223503266#1" type="moto_motorcycle"/>
    <trip id="moto117" depart="172.03" departLane="best" from="223640821#3" to="223555572#0" type="moto_motorcycle"/>
    <trip id="moto118" depart="173.50" departLane="best" from="223404341#5" to="641301563#0" type="moto_motorcycle"/>
    <trip id="moto119" depart="174.97" departLane="best" from="223415724#5" to="-223391207#4" type="moto_motorcycle"/>
    <trip id="moto120" depart="176.44" departLane="best" from="223640820#1" to="-223640821#1" type="moto_motorcycle"/>
    <trip id="moto121" depart="177.92" departLane="best" from="223503261" to="523699569#11" type="moto_motorcycle"/>
    <trip id="moto122" depart="179.39" departLane="best" from="-223415724#8" to="-223415715#4" type="moto_motorcycle"/>
    <trip id="moto123" depart="180.86" departLane="best" from="-223415713" to="223403444#5" type="moto_motorcycle"/>
    <trip id="moto124" depart="182.33" departLane="best" from="-223640817#4" to="223415705" type="moto_motorcycle"/>
    <trip id="moto125" depart="183.80" departLane="best" from="223555563#4" to="-223555674#1" type="moto_motorcycle"/>
    <trip id="moto126" depart="185.27" departLane="best" from="223415715#3" to="-223640817#0" type="moto_motorcycle"/>
    <trip id="moto127" depart="186.74" departLane="best" from="223640824#0" to="-223404341#5" type="moto_motorcycle"/>
    <trip id="moto129" depart="189.68" departLane="best" from="-223391207#1" to="223640816#0" type="moto_motorcycle"/>
    <trip id="moto130" depart="191.15" departLane="best" from="223415715#5" to="-223640816#2" type="moto_motorcycle"/>
    <trip id="moto131" depart="192.62" departLane="best" from="223555675#3" to="223403444#4" type="moto_motorcycle"/>
    <trip id="moto132" depart="194.09" departLane="best" from="-641301537" to="-223391207#4" type="moto_motorcycle"/>
    <trip id="moto133" depart="195.56" departLane="best" from="-223404328#3" to="223641160#6" type="moto_motorcycle"/>
    <trip id="moto134" depart="197.03" departLane="best" from="223641160#7" to="223403444#1" type="moto_motorcycle"/>
    <trip id="moto135" depart="198.50" departLane="best" from="223640821#4" to="223404328#6" type="moto_motorcycle"/>
    <trip id="moto136" depart="199.97" departLane="best" from="-223503263#2" to="-223415724#2" type="moto_motorcycle"/>
    <trip id="moto137" depart="201.44" departLane="best" from="-223640821#5" to="484563086#0-AddedOnRampEdge" type="moto_motorcycle"/>
    <trip id="moto138" depart="202.91" departLane="best" from="223640817#1" to="223641156#0" type="moto_motorcycle"/>
    <trip id="moto139" depart="204.38" departLane="best" from="223641160#5" to="-223555675#2" type="moto_motorcycle"/>
    <trip id="moto140" depart="205.85" departLane="best" from="-223640814#1" to="-223415705" type="moto_motorcycle"/>
    <trip id="moto141" depart="207.32" departLane="best" from="223640814#2" to="223641160#6" type="moto_motorcycle"/>
    <trip id="moto142" depart="208.79" departLane="best" from="-553237960#1" to="223415715#5" type="moto_motorcycle"/>
    <trip id="moto143" depart="210.26" departLane="best" from="223640831#1" to="641301555#0" type="moto_motorcycle"/>
    <trip id="moto144" depart="211.73" departLane="best" from="223640819#2" to="223641160#5" type="moto_motorcycle"/>
    <trip id="moto145" depart="213.20" departLane="best" from="-223391414#2" to="223640805#3" type="moto_motorcycle"/>
    <trip id="moto146" depart="214.67" departLane="best" from="-223640831#0" to="523699569#11" type="moto_motorcycle"/>
    <trip id="moto147" depart="216.14" departLane="best" from="223640817#4" to="223641156#2" type="moto_motorcycle"/>
    <trip id="moto148" depart="217.62" departLane="best" from="223640819#2" to="-223640817#1" type="moto_motorcycle"/>
    <trip id="moto149" depart="219.09" departLane="best" from="223640816#0" to="-223415715#0" type="moto_motorcycle"/>
    <trip id="moto150" depart="220.56" departLane="best" from="223641148#2" to="223641148#4" type="moto_motorcycle"/>
    <trip id="moto151" depart="222.03" departLane="best" from="-223640805#1" to="223640821#4" type="moto_motorcycle"/>
    <trip id="moto152" depart="223.50" departLane="best" from="223391207#2" to="-223640821#4" type="moto_motorcycle"/>
    <trip id="moto153" depart="224.97" departLane="best" from="223640817#1" to="-223640806#0" type="moto_motorcycle"/>
    <trip id="moto154" depart="226.44" departLane="best" from="-223640826#1" to="223641156#2" type="moto_motorcycle"/>
    <trip id="moto155" depart="227.91" departLane="best" from="641301537" to="-223640819#0" type="moto_motorcycle"/>
    <trip id="moto156" depart="229.38" departLane="best" from="641301558" to="223403162#1" type="moto_motorcycle"/>
    <trip id="moto157" depart="230.85" departLane="best" from="641301550" to="-223531010#4" type="moto_motorcycle"/>
    <trip id="moto159" depart="233.79" departLane="best" from="-223415715#0" to="-641301555#0" type="moto_motorcycle"/>
    <trip id="moto160" depart="235.26" departLane="best" from="223555572#4" to="-223640823#1" type="moto_motorcycle"/>
    <trip id="moto162" depart="238.20" departLane="best" from="-484563087#0" to="223404328#3" type="moto_motorcycle"/>
    <trip id="moto163" depart="239.67" departLane="best" from="-223640815#1" to="223555572#2" type="moto_motorcycle"/>
    <trip id="moto164" depart="241.14" departLane="best" from="223555675#3" to="223503269" type="moto_motorcycle"/>
    <trip id="moto165" depart="242.61" departLane="best" from="-223641160#2" to="-223404328#0" type="moto_motorcycle"/>
    <trip id="moto166" depart="244.08" departLane="best" from="223503263#0" to="-223640829" type="moto_motorcycle"/>
    <trip id="moto167" depart="245.55" departLane="best" from="-223640823#1" to="223640831#2" type="moto_motorcycle"/>
    <trip id="moto168" depart="247.02" departLane="best" from="223555563#5" to="-223640821#1" type="moto_motorcycle"/>
    <trip id="moto169" depart="248.49" departLane="best" from="-223640821#6" to="-553237960#1-AddedOnRampEdge" type="moto_motorcycle"/>
    <trip id="moto170" depart="249.96" departLane="best" from="-484563087#2" to="-223640820#5" type="moto_motorcycle"/>
    <trip id="moto172" depart="252.90" departLane="best" from="523699569#1" to="223506806#2" type="moto_motorcycle"/>
    <trip id="moto173" depart="254.37" departLane="best" from="223641160#7" to="223415715#3" type="moto_motorcycle"/>
    <trip id="moto174" depart="255.84" departLane="best" from="-223640821#2" to="223403444#2" type="moto_motorcycle"/>
    <trip id="moto175" depart="257.32" departLane="best" from="-223391207#0" to="-223640820#0" type="moto_motorcycle"/>
    <trip id="moto176" depart="258.79" departLane="best" from="-641301552" to="223404328#4" type="moto_motorcycle"/>
    <trip id="moto177" depart="260.26" departLane="best" from="223415724#8" to="223391207#5" type="moto_motorcycle"/>
    <trip id="moto178" depart="261.73" departLane="best" from="-641301560#0" to="-223555676#0" type="moto_motorcycle"/>
    <trip id="moto179" depart="263.20" departLane="best" from="223391216#0" to="484563086#1" type="moto_motorcycle"/>
    <trip id="moto180" depart="264.67" departLane="best" from="223640817#1" to="-223506806#2" type="moto_motorcycle"/>
    <trip id="moto182" depart="267.61" departLane="best" from="223415715#3" to="-223640831#1" type="moto_motorcycle"/>
    <trip id="moto183" depart="269.08" departLane="best" from="223640820#2" to="223640812#2" type="moto_motorcycle"/>
    <trip id="moto184" depart="270.55" departLane="best" from="223503265#1" to="-223640805#3" type="moto_motorcycle"/>
    <trip id="moto186" depart="273.49" departLane="best" from="-223640813#1" to="223391216#5" type="moto_motorcycle"/>
    <trip id="moto187" depart="274.96" departLane="best" from="223640825#0" to="-223404328#2" type="moto_motorcycle"/>
    <trip id="moto188" depart="276.43" departLane="best" from="-640406765#0" to="223415724#11" type="moto_motorcycle"/>
    <trip id="moto189" depart="277.90" departLane="best" from="-223555572#1" to="223555563#2" type="moto_motorcycle"/>
    <trip id="moto190" depart="279.37" departLane="best" from="223391216#6" to="-223640813#0" type="moto_motorcycle"/>
    <trip id="moto191" depart="280.84" departLane="best" from="223415724#8" to="-223391207#2" type="moto_motorcycle"/>
    <trip id="moto192" depart="282.31" departLane="best" from="223640805#1" to="223640816#0" type="moto_motorcycle"/>
    <trip id="moto194" depart="285.25" departLane="best" from="-223531010#3" to="640406765#1" type="moto_motorcycle"/>
    <trip id="moto195" depart="286.72" departLane="best" from="223391571" to="-223403444#4" type="moto_motorcycle"/>
    <trip id="moto196" depart="288.19" departLane="best" from="-223640814#1" to="223640831#2" type="moto_motorcycle"/>
    <trip id="moto197" depart="289.66" departLane="best" from="223503263#1" to="641301563#0" type="moto_motorcycle"/>
    <trip id="moto198" depart="291.13" departLane="best" from="223404328#3" to="523699569#6" type="moto_motorcycle"/>
    <trip id="moto199" depart="292.60" departLane="best" from="223641160#1" to="223415715#1" type="moto_motorcycle"/>
    <trip id="moto201" depart="295.55" departLane="best" from="223640821#2" to="223403444#2" type="moto_motorcycle"/>
    <trip id="moto202" depart="297.02" departLane="best" from="223641160#4" to="223640811#0" type="moto_motorcycle"/>
    <trip id="moto203" depart="298.49" departLane="best" from="223391216#0" to="-223640816#0" type="moto_motorcycle"/>
    <trip id="moto204" depart="299.96" departLane="best" from="-223640814#0" to="223415724#8" type="moto_motorcycle"/>
    <trip id="moto205" depart="301.43" departLane="best" from="223640812#1" to="223391572" type="moto_motorcycle"/>
    <trip id="moto206" depart="302.90" departLane="best" from="223415713" to="-223640817#5" type="moto_motorcycle"/>
    <trip id="moto207" depart="304.37" departLane="best" from="-223404328#4" to="-223640820#0" type="moto_motorcycle"/>
    <trip id="moto208" depart="305.84" departLane="best" from="-223640817#4" to="-223640824#1" type="moto_motorcycle"/>
    <trip id="moto209" depart="307.31" departLane="best" from="-223640811#0" to="223555563#1" type="moto_motorcycle"/>
    <trip id="moto210" depart="308.78" departLane="best" from="223531016#0" to="-223404325#1" type="moto_motorcycle"/>
    <trip id="moto211" depart="310.25" departLane="best" from="-553237960#1" to="223403162#4" type="moto_motorcycle"/>
    <trip id="moto212" depart="311.72" departLane="best" from="-640406765#0" to="-223555675#0" type="moto_motorcycle"/>
    <trip id="moto213" depart="313.19" departLane="best" from="223404325#2" to="223555563#2" type="moto_motorcycle"/>
    <trip id="moto214" depart="314.66" departLane="best" from="223640826#0" to="223640815#0" type="moto_motorcycle"/>
    <trip id="moto215" depart="316.13" departLane="best" from="-223641170" to="-223391207#3" type="moto_motorcycle"/>
    <trip id="moto216" depart="317.60" departLane="best" from="-223641156#2" to="223640812#3" type="moto_motorcycle"/>
    <trip id="moto217" depart="319.07" departLane="best" from="223640825#1" to="523699569#8" type="moto_motorcycle"/>
    <trip id="moto218" depart="320.54" departLane="best" from="-641301529" to="223640812#0" type="moto_motorcycle"/>
    <trip id="moto219" depart="322.01" departLane="best" from="-223640805#0" to="-223640805#0" type="moto_motorcycle"/>
    <trip id="moto221" depart="324.95" departLane="best" from="-223640831#2" to="223531010#0" type="moto_motorcycle"/>
    <trip id="moto222" depart="326.42" departLane="best" from="223391207#6" to="-223415724#2" type="moto_motorcycle"/>
    <trip id="moto223" depart="327.89" departLane="best" from="-223391416#0" to="223415924#1" type="moto_motorcycle"/>
    <trip id="moto224" depart="329.36" departLane="best" from="-223415724#9" to="223391207#3" type="moto_motorcycle"/>
    <trip id="moto225" depart="330.83" departLane="best" from="-223403444#4" to="-223641170" type="moto_motorcycle"/>
    <trip id="moto226" depart="332.30" departLane="best" from="-223555675#3" to="-223640826#0" type="moto_motorcycle"/>
    <trip id="moto227" depart="333.77" departLane="best" from="223640811#0" to="-223641170" type="moto_motorcycle"/>
    <trip id="moto228" depart="335.25" departLane="best" from="223640805#2" to="223640824#1" type="moto_motorcycle"/>
    <trip id="moto229" depart="336.72" departLane="best" from="-223640815#0" to="-223404328#6" type="moto_motorcycle"/>
    <trip id="moto230" depart="338.19" departLane="best" from="-223391412#2" to="223403162#2" type="moto_motorcycle"/>
    <trip id="moto231" depart="339.66" departLane="best" from="641301568#1" to="-223641156#1" type="moto_motorcycle"/>
    <trip id="moto232" depart="341.13" departLane="best" from="223415724#2" to="223640817#2" type="moto_motorcycle"/>
    <trip id="moto233" depart="342.60" departLane="best" from="223415724#4" to="223640813#0" type="moto_motorcycle"/>
    <trip id="moto234" depart="344.07" departLane="best" from="523699569#6" to="-223555572#4" type="moto_motorcycle"/>
    <trip id="moto235" depart="345.54" departLane="best" from="-223391414#0" to="-223503265#2" type="moto_motorcycle"/>
    <trip id="moto236" depart="347.01" departLane="best" from="-223415724#11" to="223503267#1" type="moto_motorcycle"/>
    <trip id="moto237" depart="348.48" departLane="best" from="223403444#1" to="-223556865" type="moto_motorcycle"/>
    <trip id="moto238" depart="349.95" departLane="best" from="223531010#2" to="223640815#1" type="moto_motorcycle"/>
    <trip id="moto239" depart="351.42" departLane="best" from="-223506806#1" to="223415710" type="moto_motorcycle"/>
    <trip id="moto242" depart="355.83" departLane="best" from="-223640823#0" to="223506806#2" type="moto_motorcycle"/>
    <trip id="moto243" depart="357.30" departLane="best" from="223555563#3" to="-223404328#3" type="moto_motorcycle"/>
    <trip id="moto244" depart="358.77" departLane="best" from="223506806#0" to="223415724#10" type="moto_motorcycle"/>
    <trip id="moto245" depart="360.24" departLane="best" from="-223415705" to="223640816#1" type="moto_motorcycle"/>
    <trip id="moto246" depart="361.71" departLane="best" from="223640825#0" to="223404452#2" type="moto_motorcycle"/>
    <trip id="moto247" depart="363.18" departLane="best" from="-223415724#0" to="641301560#1" type="moto_motorcycle"/>
    <trip id="moto248" depart="364.65" departLane="best" from="223640815#0" to="-223641148#4" type="moto_motorcycle"/>
    <trip id="moto249" depart="366.12" departLane="best" from="-641301550" to="-223641160#5" type="moto_motorcycle"/>
    <trip id="moto250" depart="367.59" departLane="best" from="223391414#0" to="-223641148#1" type="moto_motorcycle"/>
    <trip id="moto251" depart="369.06" departLane="best" from="223640824#1" to="223640823#0" type="moto_motorcycle"/>
    <trip id="moto252" depart="370.53" departLane="best" from="-223415713" to="641301529" type="moto_motorcycle"/>
    <trip id="moto253" depart="372.00" departLane="best" from="223415715#4" to="223640824#0" type="moto_motorcycle"/>
    <trip id="moto254" depart="373.47" departLane="best" from="223531016#1" to="-641301555#0" type="moto_motorcycle"/>
    <trip id="moto256" depart="376.42" departLane="best" from="-223640817#3" to="223640820#5" type="moto_motorcycle"/>
    <trip id="moto257" depart="377.89" departLane="best" from="-641301555#1" to="223640805#0" type="moto_motorcycle"/>
    <trip id="moto258" depart="379.36" departLane="best" from="-223640817#2" to="223641148#1" type="moto_motorcycle"/>
    <trip id="moto259" depart="380.83" departLane="best" from="223640821#2" to="-223404341#1" type="moto_motorcycle"/>
    <trip id="moto260" depart="382.30" departLane="best" from="223641156#2" to="-223640813#0" type="moto_motorcycle"/>
    <trip id="moto261" depart="383.77" departLane="best" from="223391207#4" to="223415715#0" type="moto_motorcycle"/>
    <trip id="moto263" depart="386.71" departLane="best" from="223640825#0" to="-223555563#1" type="moto_motorcycle"/>
    <trip id="moto264" depart="388.18" departLane="best" from="-223555675#3" to="223640820#0" type="moto_motorcycle"/>
    <trip id="moto265" depart="389.65" departLane="best" from="-223641148#1" to="223641160#4" type="moto_motorcycle"/>
    <trip id="moto266" depart="391.12" departLane="best" from="223531010#3" to="-223640817#7" type="moto_motorcycle"/>
    <trip id="moto267" depart="392.59" departLane="best" from="-223391207#5" to="523699569#5" type="moto_motorcycle"/>
    <trip id="moto268" depart="394.06" departLane="best" from="-223404341#0" to="223555675#1" type="moto_motorcycle"/>
    <trip id="moto269" depart="395.53" departLane="best" from="223391216#2" to="223640814#0" type="moto_motorcycle"/>
    <trip id="moto270" depart="397.00" departLane="best" from="223506806#0" to="223503261" type="moto_motorcycle"/>
    <trip id="moto271" depart="398.47" departLane="best" from="223391216#3" to="223640819#1" type="moto_motorcycle"/>
    <trip id="moto272" depart="399.94" departLane="best" from="-223404341#5" to="-223640805#1" type="moto_motorcycle"/>